data_C4Br4S2G_publ

_pd_block_id
  2005-07-28T14:08|C4Br4S2G|R.B._Helmholdt|Overall

_audit_creation_method  "from EXP file using GSAS2CIF"
_audit_creation_date                   2005-07-28T14:08
_audit_author_name                     "R.B. Helmholdt"
_audit_update_record
; 2005-07-28T14:08  Initial CIF as created by GSAS2CIF
;

#=============================================================================
# this information describes the project, paper etc. for the CIF             #
# Acta Cryst. Section C papers and editorial correspondence is generated     #
# from the information in this section                                       #
#                                                                            #
#   (from)   CIF submission form for Rietveld refinements (Acta Cryst. C)    #
#                                                 Version 14 December 1998   #
#=============================================================================
# 1. SUBMISSION DETAILS

_publ_contact_author_name            'Robert B. Helmholdt'
_publ_contact_author_address         # Address of author for correspondence
;       Laboratory for Crystallography
        Van 't Hoff Institute for Molecular Sciences (HIMS)
        Faculty of Science (FNWI)
        University of Amsterdam
        Valckenierstraat 65
        1018 XE Amsterdam
        The Netherlands
;
_publ_contact_author_email           rbh@science.uva.nl
_publ_contact_author_fax             '+31 20 5256940'
_publ_contact_author_phone           '+31 20 5257033'

_publ_contact_letter
; ?
;

_publ_requested_journal              'Acta Cryst. B'
_publ_requested_coeditor_name        ?
_publ_requested_category             ?   # Acta C: one of CI/CM/CO/FI/FM/FO

#==============================================================================

# 2. PROCESSING SUMMARY (IUCr Office Use Only)

_journal_data_validation_number      ?

_journal_date_recd_electronic        2007-05-02
_journal_date_to_coeditor            ?
_journal_date_from_coeditor          ?
_journal_date_accepted               2007-07-25
_journal_date_printers_first         ?
_journal_date_printers_final         ?
_journal_date_proofs_out             ?
_journal_date_proofs_in              ?
_journal_coeditor_name               ?
_journal_coeditor_code               AV5088
_journal_coeditor_notes
; ?
;
_journal_techeditor_code             ?
_journal_techeditor_notes
; ?
;
_journal_coden_ASTM                  ?
_journal_name_full                   'Acta Crystallographica, Section B'
_journal_year                        2007
_journal_volume                      63
_journal_issue                       5
_journal_page_first                  783
_journal_page_last                   790
_journal_paper_category              FA
_journal_suppl_publ_number           ?
_journal_suppl_publ_pages            ?

#==============================================================================

# 3. TITLE AND AUTHOR LIST

_publ_section_title
;
The Crystal Structure of tetrabromothiophene and tetrabromoselenophene;
the influence of the heteroatom on the heterophene packing
;
_publ_section_title_footnote
; ?
;

# The loop structure below should contain the names and addresses of all
# authors, in the required order of publication. Repeat as necessary.

loop_
 _publ_author_name
 _publ_author_footnote
 _publ_author_address
#<--'Last name, first name'
        'Helmholdt, Robert B.'    
;    
;         
;       Laboratory for Crystallography
        Van 't Hoff Institute for Molecular Sciences (HIMS)
        Faculty of Science (FNWI)
        University of Amsterdam
        Valckenierstraat 65
        1018 XE Amsterdam
        The Netherlands
;
        'Sonneveld, Ed J.'
;
;
;       Laboratory for Crystallography
        Van 't Hoff Institute for Molecular Sciences (HIMS)
        Faculty of Science (FNWI)
        University of Amsterdam
        Valckenierstraat 65
        1018 XE Amsterdam
        The Netherlands
;
        'Vande Velde, Christophe M.L.'
;
;
;       University of Antwerp
        Department of Chemistry
        Universiteitsplein 1
        2160 Wilrijk
        Belgium
;
        'Blockhuys, Frank'
;
;
;       University of Antwerp
        Department of Chemistry
        Universiteitsplein 1
        2160 Wilrijk
        Belgium
;
        'Lenstra, Albert T.H.'
;
;
;       University of Antwerp
        Department of Chemistry
        Universiteitsplein 1
        2160 Wilrijk
        Belgium
;
        'Geise, Herman J.'
;      decease december 1, 2006
;
;       University of Antwerp
        Department of Chemistry
        Universiteitsplein 1
        2160 Wilrijk
        Belgium
;
        'Peschar, Ren\'e'
;
;
;       Laboratory for Crystallography
        Van 't Hoff Institute for Molecular Sciences (HIMS)
        Faculty of Science (FNWI)
        University of Amsterdam
        Valckenierstraat 65
        1018 XE Amsterdam
        The Netherlands
;


#==============================================================================

# 4. TEXT

_publ_section_synopsis
;  ?
;
_publ_section_abstract
; ?
;
_publ_section_comment
; ?
;
_publ_section_exptl_prep      # Details of the preparation of the sample(s)
                              # should be given here.
; ?
;
_publ_section_exptl_refinement
; ?
;
_publ_section_references
; ?
;
_publ_section_figure_captions
; ?
;
_publ_section_acknowledgements
; ?
;

#=============================================================================
# 5. OVERALL REFINEMENT & COMPUTING DETAILS

_refine_special_details
; ?
;
_pd_proc_ls_special_details
; ?
;

# The following items are used to identify the programs used.
_computing_molecular_graphics     ?
_computing_publication_material   ?

_refine_ls_weighting_scheme       ?
_refine_ls_weighting_details      ?
_refine_ls_hydrogen_treatment     ?
_refine_ls_extinction_method      ?
_refine_ls_extinction_coef        ?
_refine_ls_number_constraints     ?

_refine_ls_restrained_S_all       ?
_refine_ls_restrained_S_obs       ?

#==============================================================================
# 6. SAMPLE PREPARATION DATA

# (In the unusual case where multiple samples are used in a single
#  Rietveld study, this information should be moved into the phase
#  blocks)

# The following three fields describe the preparation of the material.
# The cooling rate is in K/min.  The pressure at which the sample was
# prepared is in kPa.  The temperature of preparation is in K.

_pd_prep_cool_rate                ?
_pd_prep_pressure                 ?
_pd_prep_temperature              ?

_pd_char_colour                   'white'       # use ICDD colour descriptions



data_C4Br4S2G_overall

_refine_ls_shift/su_max                5.68
_refine_ls_shift/su_mean               0.78
_computing_structure_refinement        GSAS
_refine_ls_number_parameters           108
_refine_ls_goodness_of_fit_all         3.79
_refine_ls_number_restraints           56
_refine_ls_matrix_type                 full

# pointers to the phase blocks
loop_   _pd_phase_block_id
      2005-07-28T14:08|C4Br4S2G_phase1|R.B._Helmholdt||
      2005-07-28T14:08|C4Br4S2G_phase2|R.B._Helmholdt||
# pointers to the diffraction patterns
loop_   _pd_block_diffractogram_id
      2005-07-28T14:08|C4Br4S2G_H_01|R.B._Helmholdt|Guinier_camera

# Information for phase 1



data_C4Br4S2G_phase_1

_pd_block_id
  2005-07-28T14:08|C4Br4S2G_phase1|R.B._Helmholdt||

# Histograms for phase 1
loop_   _pd_block_diffractogram_id
  2005-07-28T14:08|C4Br4S2G_H_01|R.B._Helmholdt|Guinier_camera

#==============================================================================
# 7. CHEMICAL, STRUCTURAL AND CRYSTAL DATA

_pd_char_particle_morphology      ?

_chemical_name_systematic
; ?
;
_chemical_name_common             ?
_chemical_formula_moiety          ?
_chemical_formula_structural      ?
_chemical_formula_analytical      ?
_chemical_melting_point           ?
_chemical_compound_source         ?       # for minerals and
                                          # natural products
_symmetry_space_group_name_Hall   ?

_exptl_crystal_F_000               ?
_exptl_crystal_density_diffrn      ?
_exptl_crystal_density_meas        ?
_exptl_crystal_density_method      ?

_cell_measurement_temperature     ?

_cell_special_details
; ?
;

_geom_special_details             ?

# The following item identifies the program(s) used (if appropriate).
_computing_structure_solution     ?

#==============================================================================

# 8. Phase information from GSAS

_pd_phase_name                         "C4Br4S, monoclinic phase"
_cell_length_a                         12.419(5)
_cell_length_b                         4.0397(17)
_cell_length_c                         8.824(4)
_cell_angle_alpha                      90.0
_cell_angle_beta                       109.1813(33)
_cell_angle_gamma                      90.0
_cell_volume                           418.1(5)
_symmetry_cell_setting                 monoclinic
_symmetry_space_group_name_H-M         "P n"
loop_ _symmetry_equiv_pos_site_id _symmetry_equiv_pos_as_xyz
       1 +x,+y,+z 
       2 +x+1/2,-y,+z+1/2 

# ATOMIC COORDINATES AND DISPLACEMENT PARAMETERS


loop_
      _atom_site_type_symbol
      _atom_site_label
      _atom_site_fract_x
      _atom_site_fract_y
      _atom_site_fract_z
      _atom_site_occupancy
      _atom_site_thermal_displace_type
      _atom_site_U_iso_or_equiv
      _atom_site_symmetry_multiplicity
S 
S11     0.5249(6)    0.086(5)     0.7188(8)    1.0        Uiso   0.01226       2
C 
C11     0.3956(12)   0.125(9)     0.7364(12)   1.0        Uiso   0.01226       2
C 
C12     0.3146(10)   0.235(7)     0.5964(11)   1.0        Uiso   0.01226       2
C 
C13     0.3581(9)    0.223(7)     0.4673(10)   1.0        Uiso   0.01226       2
C 
C14     0.4725(12)   0.135(10)    0.5204(14)   1.0        Uiso   0.01226       2
Br
BR11    0.3733(8)    0.1219(34)   0.9395(8)    1.0        Uiso   0.01226       2
Br
BR12    0.1862(6)    0.4840(27)   0.5967(12)   1.0        Uiso   0.01226       2
Br
BR13    0.2969(8)    0.4763(25)   0.2774(9)    1.0        Uiso   0.01226       2
Br
BR14    0.5668(6)    0.096(4)     0.3896(9)    1.0        Uiso   0.01226       2

loop_ _atom_type_symbol
      _atom_type_number_in_cell
                   S_  2.0        
                   C_  8.0        
                   Br  8.0        
 
# If you change Z, be sure to change all 3 of the following
_chemical_formula_sum                  "C4 Br4 S"
_chemical_formula_weight               399.72
_cell_formula_units_Z                  2

_pd_proc_ls_pref_orient_corr
;   Spherical Harmonic ODF
 PHASE 4 spherical harmonic order=  4
 The sample symmetry is: cylindrical (fiber texture)
 Index =  2  0 -2   Coeff=   -0.2896
 Index =  2  0  0   Coeff=    0.6004
 Index =  2  0  2   Coeff=    0.1875
 Index =  4  0 -4   Coeff=    0.0771
 Index =  4  0 -2   Coeff=    0.1331
 Index =  4  0  0   Coeff=    0.3744
 Index =  4  0  2   Coeff=    0.2432
 Index =  4  0  4   Coeff=    0.1470
;


# MOLECULAR GEOMETRY

loop_
      _geom_bond_atom_site_label_1
      _geom_bond_atom_site_label_2
      _geom_bond_distance
      _geom_bond_site_symmetry_1
      _geom_bond_site_symmetry_2
      _geom_bond_publ_flag
  S11       C11               1.670(9)  .      1_555  N
  S11       C12               2.549(9)  .      1_555  N
  S11       C13               2.550(8)  .      1_555  N
  S11       C14               1.667(9)  .      1_555  N
  S11       BR11              3.125(9)  .      1_555  N
  S11       BR14              3.116(9)  .      1_555  N
  C11       S11               1.670(9)  .      1_555  N
  C11       C12               1.386(8)  .      1_555  N
  C11       BR11              1.901(8)  .      1_555  N
  C11       BR12             2.877(10)  .      1_555  N
  C12       S11               2.549(9)  .      1_555  N
  C12       C11               1.386(8)  .      1_555  N
  C12       C13               1.413(7)  .      1_555  N
  C12       BR11              2.908(8)  .      1_555  N
  C12       BR12              1.885(9)  .      1_555  N
  C12       BR13              2.918(9)  .      1_555  N
  C13       S11               2.550(8)  .      1_555  N
  C13       C12               1.413(7)  .      1_555  N
  C13       C14               1.387(8)  .      1_555  N
  C13       BR13              1.896(9)  .      1_555  N
  C14       S11               1.667(9)  .      1_555  N
  C14       C13               1.387(8)  .      1_555  N
  C14       BR13             2.860(10)  .      1_555  N
  C14       BR14              1.902(7)  .      1_555  N
  BR11      S11               3.125(9)  .      1_555  N
  BR11      C11               1.901(8)  .      1_555  N
  BR11      C12               2.908(8)  .      1_555  N
  BR11      BR12             3.474(11)  .      1_555  N
  BR12      C11              2.877(10)  .      1_555  N
  BR12      C12               1.885(9)  .      1_555  N
  BR12      BR11             3.474(11)  .      1_555  N
  BR12      BR13             3.518(13)  .      1_555  N
  BR13      C12               2.918(9)  .      1_555  N
  BR13      C13               1.896(9)  .      1_555  N
  BR13      C14              2.860(10)  .      1_555  N
  BR13      BR12             3.518(13)  .      1_555  N
  BR13      BR14             3.520(12)  .      1_555  N
  BR14      S11               3.116(9)  .      1_555  N
  BR14      C14               1.902(7)  .      1_555  N
  BR14      BR13             3.520(12)  .      1_555  N

loop_
      _geom_angle_atom_site_label_1
      _geom_angle_atom_site_label_2
      _geom_angle_atom_site_label_3
      _geom_angle
      _geom_angle_site_symmetry_1
      _geom_angle_site_symmetry_2
      _geom_angle_site_symmetry_3
      _geom_angle_publ_flag
  C11       S11       C14                91.8(4)      1_555  .      1_555  N
  S11       C11       C12               112.7(6)      1_555  .      1_555  N
  S11       C11       BR11              122.0(8)      1_555  .      1_555  N
  C12       C11       BR11              123.7(6)      1_555  .      1_555  N
  C11       C12       C13               110.5(5)      1_555  .      1_555  N
  C11       C12       BR12              122.4(9)      1_555  .      1_555  N
  C13       C12       BR12              124.6(7)      1_555  .      1_555  N
  C12       C13       C14               110.9(6)      1_555  .      1_555  N
  C12       C13       BR13              123.0(8)      1_555  .      1_555  N
  C14       C13       BR13             120.3(10)      1_555  .      1_555  N
  S11       C14       C13               112.8(5)      1_555  .      1_555  N
  S11       C14       BR14              121.5(6)      1_555  .      1_555  N
  C13       C14       BR14              125.6(6)      1_555  .      1_555  N

# Information for phase 2



data_C4Br4S2G_phase_2

_pd_block_id
  2005-07-28T14:08|C4Br4S2G_phase2|R.B._Helmholdt||

# Histograms for phase 2
loop_   _pd_block_diffractogram_id
  2005-07-28T14:08|C4Br4S2G_H_01|R.B._Helmholdt|Guinier_camera

#==============================================================================
# 7. CHEMICAL, STRUCTURAL AND CRYSTAL DATA

_pd_char_particle_morphology      ?

_chemical_name_systematic
; ?
;
_chemical_name_common             ?
_chemical_formula_moiety          ?
_chemical_formula_structural      ?
_chemical_formula_analytical      ?
_chemical_melting_point           ?
_chemical_compound_source         ?       # for minerals and
                                          # natural products
_symmetry_space_group_name_Hall   ?

_exptl_crystal_F_000               ?
_exptl_crystal_density_diffrn      ?
_exptl_crystal_density_meas        ?
_exptl_crystal_density_method      ?

_cell_measurement_temperature     ?

_cell_special_details
; ?
;

_geom_special_details             ?

# The following item identifies the program(s) used (if appropriate).
_computing_structure_solution     ?

#==============================================================================

# 8. Phase information from GSAS

_pd_phase_name                         "C4Br4S, orthorhombic phase"
_cell_length_a                         12.643(10)
_cell_length_b                         4.0335(31)
_cell_length_c                         16.350(12)
_cell_angle_alpha                      90.0
_cell_angle_beta                       90.0
_cell_angle_gamma                      90.0
_cell_volume                           833.8(19)
_symmetry_cell_setting                 orthorhombic
_symmetry_space_group_name_H-M         "P c a 21"
loop_ _symmetry_equiv_pos_site_id _symmetry_equiv_pos_as_xyz
       1 +x,+y,+z 
       2 -x+1/2,+y,+z+1/2 
       3 +x+1/2,-y,+z 
       4 -x,-y,+z+1/2 

# ATOMIC COORDINATES AND DISPLACEMENT PARAMETERS


loop_
      _atom_site_type_symbol
      _atom_site_label
      _atom_site_fract_x
      _atom_site_fract_y
      _atom_site_fract_z
      _atom_site_occupancy
      _atom_site_thermal_displace_type
      _atom_site_U_iso_or_equiv
      _atom_site_symmetry_multiplicity
S 
S21     0.4287(11)   0.891(7)     0.2800(8)    1.0        Uiso   0.01529       4
C 
C21     0.3402(23)   0.814(15)    0.3525(6)    1.0        Uiso   0.01529       4
C 
C22     0.2407(22)   0.687(14)    0.3213(5)    1.0        Uiso   0.01529       4
C 
C23     0.2459(23)   0.658(14)    0.2361(4)    1.0        Uiso   0.01529       4
C 
C24     0.3448(23)   0.797(16)    0.2065(5)    1.0        Uiso   0.01529       4
Br
BR21    0.3691(16)   0.960(6)     0.4641(7)    1.0        Uiso   0.01529       4
Br
BR22    0.1230(17)   0.493(6)     0.3868(11)   1.0        Uiso   0.01529       4
Br
BR23    0.1240(12)   0.505(4)     0.1695(11)   1.0        Uiso   0.01529       4
Br
BR24    0.3812(14)   0.906(6)     0.0949(7)    1.0        Uiso   0.01529       4

loop_ _atom_type_symbol
      _atom_type_number_in_cell
                   S_  4.0        
                   C_ 16.0        
                   Br 16.0        
 
# If you change Z, be sure to change all 3 of the following
_chemical_formula_sum                  "C4 Br4 S"
_chemical_formula_weight               399.72
_cell_formula_units_Z                  4

_pd_proc_ls_pref_orient_corr
;   Spherical Harmonic ODF
 PHASE 4 spherical harmonic order=  4
 The sample symmetry is: cylindrical (fiber texture)
 Index =  2  0  0   Coeff=    0.1174
 Index =  2  0  2   Coeff=    0.3335
 Index =  4  0  0   Coeff=    0.0494
 Index =  4  0  2   Coeff=    0.0110
 Index =  4  0  4   Coeff=   -0.1731
;


# MOLECULAR GEOMETRY

loop_
      _geom_bond_atom_site_label_1
      _geom_bond_atom_site_label_2
      _geom_bond_distance
      _geom_bond_site_symmetry_1
      _geom_bond_site_symmetry_2
      _geom_bond_publ_flag
  S21       C21               1.660(9)  .      1_555  N
  S21       C24               1.648(9)  .      1_555  N
  S21       BR21              3.116(9)  .      1_555  N
  S21       BR24              3.086(9)  .      1_555  N
  C21       S21               1.660(9)  .      1_555  N
  C21       C22               1.451(8)  .      1_555  N
  C21       BR21              1.951(9)  .      1_555  N
  C22       C21               1.451(8)  .      1_555  N
  C22       C23               1.400(9)  .      1_555  N
  C22       BR22              1.993(9)  .      1_555  N
  C23       C22               1.400(9)  .      1_555  N
  C23       C24               1.453(8)  .      1_555  N
  C23       BR23              1.985(8)  .      1_555  N
  C24       S21               1.648(9)  .      1_555  N
  C24       C23               1.453(8)  .      1_555  N
  C24       BR24              1.933(9)  .      1_555  N
  BR21      S21               3.116(9)  .      1_555  N
  BR21      C21               1.951(9)  .      1_555  N
  BR22      C22               1.993(9)  .      1_555  N
  BR22      BR23             3.553(13)  .      1_555  N
  BR23      C23               1.985(8)  .      1_555  N
  BR23      BR22             3.553(13)  .      1_555  N
  BR24      S21               3.086(9)  .      1_555  N
  BR24      C24               1.933(9)  .      1_555  N

loop_
      _geom_angle_atom_site_label_1
      _geom_angle_atom_site_label_2
      _geom_angle_atom_site_label_3
      _geom_angle
      _geom_angle_site_symmetry_1
      _geom_angle_site_symmetry_2
      _geom_angle_site_symmetry_3
      _geom_angle_publ_flag
  C21       S21       C24                92.5(5)      1_555  .      1_555  N
  S21       C21       C22               113.5(5)      1_555  .      1_555  N
  S21       C21       BR21              119.1(7)      1_555  .      1_555  N
  C22       C21       BR21             126.7(10)      1_555  .      1_555  N
  C21       C22       C23               109.8(6)      1_555  .      1_555  N
  C21       C22       BR22              126.7(9)      1_555  .      1_555  N
  C23       C22       BR22              122.4(8)      1_555  .      1_555  N
  C22       C23       C24               109.8(7)      1_555  .      1_555  N
  C22       C23       BR23              122.4(8)      1_555  .      1_555  N
  C24       C23       BR23              127.2(6)      1_555  .      1_555  N
  S21       C24       C23               113.6(5)      1_555  .      1_555  N
  S21       C24       BR24              118.9(7)      1_555  .      1_555  N
  C23       C24       BR24              127.4(8)      1_555  .      1_555  N

# Powder diffraction data for histogram  1



data_C4Br4S2G_p_01

_pd_block_id
  2005-07-28T14:08|C4Br4S2G_H_01|R.B._Helmholdt|Guinier_camera
#==============================================================================
# 9. INSTRUMENT CHARACTERIZATION

_exptl_special_details
; ?
;

# if regions of the data are excluded, the reason(s) are supplied here:
_pd_proc_info_excluded_regions
; ?
;

# The following item is used to identify the equipment used to record
# the powder pattern when the diffractogram was measured at a laboratory
# other than the authors' home institution, e.g. when neutron or synchrotron
# radiation is used.

_pd_instr_location
; ?
;
_pd_calibration_special_details           # description of the method used
                                          # to calibrate the instrument
; ?
;

_diffrn_ambient_temperature       ?
_diffrn_source                    ?
_diffrn_source_target             ?
_diffrn_source_type               ?
_diffrn_measurement_device_type   ?
_diffrn_detector                  ?
_diffrn_detector_type             ?       # make or model of detector

_pd_meas_scan_method              ?       # options are 'step', 'cont',
                                          # 'tof', 'fixed' or
                                          # 'disp' (= dispersive)
_pd_meas_special_details
;  ?
;

# The following two items identify the program(s) used (if appropriate).
_computing_data_collection        ?
_computing_data_reduction         ?

# Describe any processing performed on the data, prior to refinement.
# For example: a manual Lp correction or a precomputed absorption correction
_pd_proc_info_data_reduction      ?

# The following item is used for angular dispersive measurements only.

_diffrn_radiation_monochromator   ?

# The following items are used to define the size of the instrument.
# Not all distances are appropriate for all instrument types.

_pd_instr_dist_src/mono           ?
_pd_instr_dist_mono/spec          ?
_pd_instr_dist_src/spec           ?
_pd_instr_dist_spec/anal          ?
_pd_instr_dist_anal/detc          ?
_pd_instr_dist_spec/detc          ?

# 10. Specimen size and mounting information

# The next three fields give the specimen dimensions in mm.  The equatorial
# plane contains the incident and diffracted beam.

_pd_spec_size_axial               ?       # perpendicular to
                                          # equatorial plane

_pd_spec_size_equat               ?       # parallel to
                                          # scattering vector
                                          # in transmission

_pd_spec_size_thick               ?       # parallel to
                                          # scattering vector
                                          # in reflection

_pd_spec_mounting                         # This field should be
                                          # used to give details of the
                                          # container.
; ?
;

_pd_spec_mount_mode               ?       # options are 'reflection'
                                          # or 'transmission'

_pd_spec_shape                    ?       # options are 'cylinder'
                                          # 'flat_sheet' or 'irregular'

# phase table
loop_     _pd_phase_id
          _pd_phase_block_id
          _pd_phase_mass_%
          _pd_proc_ls_profile_function
          _pd_proc_ls_peak_cutoff
  1  2005-07-28T14:08|C4Br4S2G_phase1|R.B._Helmholdt||
           57.5(6)
;
 CW Profile function number 2 with  18 terms
 Profile coefficients for Simpson's rule integration of pseudovoigt function
 C.J. Howard (1982). J. Appl. Cryst.,15,615-620.
 P. Thompson, D.E. Cox & J.B. Hastings (1987). J. Appl. Cryst.,20,79-83.
 #1(GU)   =    0.000 #2(GV)   =   92.034 #3(GW)   =  -15.968
 #4(LX)   =    0.000 #5(LY)   =    0.000 #6(trns) =   -2.284
 #7(asym) =   4.9183 #8(shft) =  -0.6622 #9(GP)   =    0.000
 #10(stec)=     0.00 #11(ptec)=     0.00 #12(sfec)=     0.00
 #13(L11) =    0.004 #14(L22) =    0.242 #15(L33) =    0.017
 #16(L12) =   -0.039 #17(L13) =   -0.001 #18(L23) =    0.018
 Peak tails are ignored  where the intensity is below 0.0075 times the peak
   Aniso. broadening axis   0.0   0.0   1.0
;
           0.00750
  2  2005-07-28T14:08|C4Br4S2G_phase2|R.B._Helmholdt||
           42.48
;
 CW Profile function number 2 with  18 terms
 Profile coefficients for Simpson's rule integration of pseudovoigt function
 C.J. Howard (1982). J. Appl. Cryst.,15,615-620.
 P. Thompson, D.E. Cox & J.B. Hastings (1987). J. Appl. Cryst.,20,79-83.
 #1(GU)   =    0.000 #2(GV)   =  141.006 #3(GW)   =  -19.958
 #4(LX)   =    0.000 #5(LY)   =    0.000 #6(trns) =    7.343
 #7(asym) =   7.1548 #8(shft) =  -2.8884 #9(GP)   =    0.000
 #10(stec)=     0.00 #11(ptec)=     0.00 #12(sfec)=     0.00
 #13(L11) =    0.008 #14(L22) =    0.000 #15(L33) =    0.000
 #16(L12) =   -0.050 #17(L13) =    0.048 #18(L23) =   -0.010
 Peak tails are ignored  where the intensity is below 0.0075 times the peak
   Aniso. broadening axis   0.0   0.0   1.0
;
           0.00750

loop_ _atom_type_symbol
      _atom_type_scat_dispersion_real
      _atom_type_scat_dispersion_imag
      _atom_type_scat_Cromer_Mann_a1
      _atom_type_scat_Cromer_Mann_a2
      _atom_type_scat_Cromer_Mann_a3
      _atom_type_scat_Cromer_Mann_a4
      _atom_type_scat_Cromer_Mann_b1
      _atom_type_scat_Cromer_Mann_b2
      _atom_type_scat_Cromer_Mann_b3
      _atom_type_scat_Cromer_Mann_b4
      _atom_type_scat_Cromer_Mann_c
      _atom_type_scat_source
  S    0.000    0.000
 6.90530 1.46790 5.20340 22.2151 1.43790 0.25360 1.58630 56.1720 0.86690 
  International_Tables_Vol_C
  C    0.000    0.000
 2.31000 20.8439 1.02000 10.2075 1.58860 0.56870 0.86500 51.6512 0.21560 
  International_Tables_Vol_C
  Br    0.000    0.000
 17.1789 2.17230 5.23580 16.5796 5.63770 0.26090 3.98510 41.4328 2.95570 
  International_Tables_Vol_C
_diffrn_radiation_probe                x-ray
_diffrn_radiation_polarisn_ratio       0.0
_diffrn_radiation_wavelength           1.54056
_diffrn_radiation_type                 ?
_pd_proc_ls_prof_R_factor              0.1007
_pd_proc_ls_prof_wR_factor             0.1343
_pd_proc_ls_prof_wR_expected           0.0361
_refine_ls_R_Fsqd_factor               0.20192

_pd_proc_ls_background_function
;   GSAS Background function number 1 with 18 terms.
 Shifted Chebyshev function of 1st kind
      1:    341.602     2:    143.743     3:   -87.5816     4:    12.7118    
      5:   -9.78820     6:   -2.78519     7:    48.2028     8:   -13.8350    
      9:   -50.2106    10:    7.34989    11:    13.8891    12:   -7.36409    
     13:   -1.76464    14:   -10.2284    15:   -13.6321    16:    2.79494    
     17:   -11.5366    18:   -9.02730    
;

_exptl_absorpt_process_details
;   GSAS Absorption/surface roughness correction: function number 0
 No correction is applied.
;
_exptl_absorpt_correction_T_min        1.00000
_exptl_absorpt_correction_T_max        1.00000
# Extinction correction
_gsas_exptl_extinct_corr_T_min         1.00000
_gsas_exptl_extinct_corr_T_max         1.00000
_pd_proc_info_datetime                 2005-07-28T14:08:11
_pd_calc_method                        "Rietveld Refinement"

#---- raw/calc data loop -----
_pd_meas_2theta_range_min              4.05
_pd_meas_2theta_range_max              80.69
_pd_meas_2theta_range_inc              0.01
_pd_proc_2theta_range_min              4.05
_pd_proc_2theta_range_max              80.69
_pd_proc_2theta_range_inc              0.01

loop_
      _pd_meas_counts_total
      _pd_proc_ls_weight
      _pd_proc_intensity_bkg_calc
      _pd_calc_intensity_total
  598.0      0.0         16501.85938   .
  532.0      0.0         16264.69727   .
  570.0      0.0         16030.11816   .
  485.0      0.0         15798.09082   .
  558.0      0.0         15568.60645   .
  562.0      0.0         15341.64063   .
  527.0      0.0         15117.15430   .
  490.0      0.0         14895.14355   .
  543.0      0.0         14675.56055   .
  546.0      0.0         14458.43652   .
  482.0      0.0         14243.68359   .
  500.0      0.0         14031.33496   .
  519.0      0.0         13821.32422   .
  477.0      0.0         13613.66406   .
  511.0      0.0         13408.31348   .
  465.0      0.0         13205.27344   .
  538.0      0.0         13004.49316   .
  474.0      0.0         12805.98145   .
  460.0      0.0         12609.69922   .
  453.0      0.0         12415.63477   .
  521.0      0.0         12223.77930   .
  509.0      0.0         12034.08105   .
  461.0      0.0         11846.53223   .
  419.0      0.0         11661.12012   .
  474.0      0.0         11477.83887   .
  461.0      0.0         11296.64258   .
  482.0      0.0         11117.52441   .
  436.0      0.0         10940.45508   .
  422.0      0.0         10765.44043   .
  417.0      0.0         10592.42871   .
  414.0      0.0         10421.44336   .
  436.0      0.0         10252.41602   .
  370.0      0.0         10085.36133   .
  416.0      0.0         9920.24902    .
  421.0      0.0         9757.07031    .
  372.0      0.0         9595.79199    .
  393.0      0.0         9436.41699    .
  415.0      0.0         9278.91699    .
  372.0      0.0         9123.27344    .
  404.0      0.0         8969.45313    .
  372.0      0.0         8817.47363    .
  400.0      0.0         8667.29297    .
  357.0      0.0         8518.90234    .
  436.0      0.0         8372.28516    .
  410.0      0.0         8227.40723    .
  360.0      0.0         8084.28418    .
  421.0      0.0         7942.87012    .
  281.0      0.0         7803.16895    .
  453.0      0.0         7665.15527    .
  326.0      0.0         7528.81543    .
  323.0      0.0         7394.12646    .
  359.0      0.0         7261.09668    .
  378.0      0.0         7129.66797    .
  279.0      0.0         6999.85938    .
  392.0      0.0         6871.64893    .
  287.0      0.0         6745.01953    .
  372.0      0.0         6619.94629    .
  293.0      0.0         6496.41992    .
  314.0      0.0         6374.42285    .
  330.0      0.0         6253.95508    .
  277.0      0.0         6134.98975    .
  345.0      0.0         6017.51025    .
  279.0      0.0         5901.50586    .
  301.0      0.0         5786.96973    .
  321.0      0.0         5673.86816    .
  319.0      0.0         5562.20313    .
  259.0      0.0         5451.95508    .
  311.0      0.0         5343.10938    .
  293.0      0.0         5235.65723    .
  268.0      0.0         5129.57715    .
  211.0      0.0         5024.87012    .
  329.0      0.0         4921.50000    .
  178.0      0.0         4819.46484    .
  266.0      0.0         4718.76904    .
  262.0      0.0         4619.37158    .
  278.0      0.0         4521.27051    .
  283.0      0.0         4424.45947    .
  277.0      0.0         4328.90088    .
  210.0      0.0         4234.60986    .
  268.0      0.0         4141.57178    .
  199.0      0.0         4049.75781    .
  241.0      0.0         3959.17188    .
  201.0      0.0         3869.79419    .
  259.0      0.0         3781.59619    .
  155.0      0.0         3694.60229    .
  212.0      0.0         3608.76758    .
  242.0      0.0         3524.08838    .
  248.0      0.0         3440.56445    .
  177.0      0.0         3358.17920    .
  292.0      0.0         3276.90869    .
  174.0      0.0         3196.76318    .
  253.0      0.0         3117.70972    .
  181.0      0.0         3039.74927    .
  256.0      0.0         2962.87524    .
  147.0      0.0         2887.05981    .
  241.0      0.0         2812.30029    .
  193.0      0.0         2738.58228    .
  215.0      0.0         2665.91724    .
  189.0      0.0         2594.25000    .
  151.0      0.0         2523.61523    .
  240.0      0.0         2453.97461    .
  166.0      0.0         2385.33203    .
  252.0      0.0         2317.67334    .
  199.0      0.0         2250.97827    .
  152.0      0.0         2185.24609    .
  184.0      0.0         2120.46997    .
  186.0      0.0         2056.62305    .
  198.0      0.0         1993.71570    .
  169.0      0.0         1931.72937    .
  193.0      0.0         1870.65002    .
  188.0      0.0         1810.47595    .
  163.0      0.0         1751.19409    .
  193.0      0.0         1692.78735    .
  162.0      0.0         1635.26086    .
  133.0      0.0         1578.59070    .
  199.0      0.0         1522.78210    .
  157.0      0.0         1467.81396    .
  178.0      0.0         1413.68359    .
  166.0      0.0         1360.37793    .
  185.0      0.0         1307.89026    .
  176.0      0.0         1256.20422    .
  154.0      0.0         1205.32251    .
  101.0      0.0         1155.23218    .
  201.0      0.0         1105.92261    .
  113.0      0.0         1057.39392    .
  102.0      0.0         1009.62518    .
  255.0      0.0         962.61102     .
  138.0      0.0         916.34125     .
  193.0      0.0         870.81659     .
  119.0      0.0         826.02032     .
  129.0      0.0         781.94855     .
  171.0      0.0         738.59320     .
  132.0      0.0         695.94019     .
  151.0      0.0         653.98981     .
  175.0      0.0         612.73413     .
  162.0      0.0         572.15692     .
  131.0      0.0         532.25629     .
  172.0      0.0         493.02411     .
  129.0      0.0         454.45114     .
  136.0      0.0         416.52795     .
  150.0      0.0         379.25549     .
  172.0      0.0         342.61990     .
  157.0      0.0         306.61197     .
  157.0      0.0         271.22546     .
  131.0      0.0         236.46349     .
  169.0      0.0         202.30290     .
  143.0      0.0         168.74352     .
  115.0      0.0         135.78099     .
  195.0      0.0         103.40883     .
  120.0      0.0         71.61330      .
  175.0      0.0         40.39178      .
  140.0      0.0          9.73898      .
  141.0      0.0        -20.35034      .
  127.0      0.0        -49.89259      .
  148.0      0.0        -78.88017      .
  106.0      0.0        -107.32982     .
  190.0      0.0        -135.25035     .
  84.0       0.0        -162.63736     .
  190.0      0.0        -189.50389     .
  112.0      0.0        -215.85463     .
  195.0      0.0        -241.70151     .
  105.0      0.0        -267.04022     .
  179.0      0.0        -291.88504     .
  164.0      0.0        -316.24521     .
  112.0      0.0        -340.10779     .
  186.0      0.0        -363.49857     .
  161.0      0.0        -386.41678     .
  142.0      0.0        -408.86530     .
  101.0      0.0        -430.85391     .
  132.0      0.0        -452.39038     .
  157.0      0.0        -473.47653     .
  108.0      0.0        -494.11685     .
  140.0      0.0        -514.32111     .
  143.0      0.0        -534.08844     .
  170.0      0.0        -553.43048     .
  95.0       0.0        -572.35181     .
  122.0      0.0        -590.85040     .
  135.0      0.0        -608.94220     .
  157.0      0.0        -626.62866     .
  143.0      0.0        -643.91339     .
  162.0      0.0        -660.80243     .
  89.0       0.0        -677.30060     .
  135.0      0.0        -693.41138     .
  153.0      0.0        -709.14453     .
  81.0       0.0        -724.49945     .
  183.0      0.0        -739.48358     .
  114.0      0.0        -754.10205     .
  126.0      0.0        -768.36249     .
  73.0       0.0        -782.26178     .
  152.0      0.0        -795.81403     .
  66.0       0.0        -809.01813     .
  135.0      0.0        -821.87946     .
  86.0       0.0        -834.40289     .
  86.0       0.0        -846.59241     .
  129.0      0.0        -858.45392     .
  159.0      0.0        -869.99219     .
  94.0       0.0        -881.21106     .
  188.0      0.0        -892.11340     .
  91.0       0.0        -902.70374     .
  107.0      0.0        -912.98962     .
  121.0      0.0        -922.97003     .
  104.0      0.0        -932.65533     .
  109.0      0.0        -942.04291     .
  165.0      0.0        -951.14294     .
  126.0      0.0        -959.95734     .
  129.0      0.0        -968.48737     .
  84.0       0.0        -976.74194     .
  138.0      0.0        -984.71844     .
  78.0       0.0        -992.43079     .
  143.0      0.0        -999.87268     .
  87.0       0.0        -1007.05408    .
  116.0      0.0        -1013.97223    .
  155.0      0.0        -1020.64014    .
  104.0      0.0        -1027.05518    .
  92.0       0.0        -1033.22192    .
  74.0       0.0        -1039.14661    .
  79.0       0.0        -1044.82947    .
  152.0      0.0        -1050.27686    .
  65.0       0.0        -1055.48767    .
  146.0      0.0        -1060.47485    .
  128.0      0.0        -1065.23071    .
  136.0      0.0        -1069.76526    .
  79.0       0.0        -1074.07959    .
  154.0      0.0        -1078.17932    .
  87.0       0.0        -1082.06348    .
  97.0       0.0        -1085.74084    .
  132.0      0.0        -1089.21033    .
  126.0      0.0        -1092.47705    .
  107.0      0.0        -1095.54309    .
  130.0      0.0        -1098.41321    .
  123.0      0.0        -1101.08813    .
  94.0       0.0        -1103.57288    .
  81.0       0.0        -1105.86926    .
  147.0      0.0        -1107.98352    .
  105.0      0.0        -1109.91418    .
  76.0       0.0        -1111.66626    .
  131.0      0.0        -1113.24341    .
  145.0      0.0        -1114.64563    .
  99.0       0.0        -1115.87927    .
  138.0      0.0        -1116.94543    .
  139.0      0.0        -1117.84497    .
  142.0      0.0        -1118.58594    .
  92.0       0.0        -1119.16785    .
  196.0      0.0        -1119.58972    .
  55.0       0.0        -1119.86035    .
  176.0      0.0        -1119.97888    .
  135.0      0.0        -1119.95032    .
  131.0      0.0        -1119.77429    .
  133.0      0.0        -1119.45691    .
  115.0      0.0        -1118.99756    .
  108.0      0.0        -1118.39844    .
  125.0      0.0        -1117.66467    .
  87.0       0.0        -1116.79675    .
  101.0      0.0        -1115.79797    .
  151.0      0.0        -1114.67163    .
  150.0      0.0        -1113.41846    .
  134.0      0.0        -1112.04053    .
  75.0       0.0        -1110.54077    .
  129.0      0.0        -1108.92151    .
  55.0       0.0        -1107.18591    .
  142.0      0.0        -1105.33459    .
  112.0      0.0        -1103.37109    .
  131.0      0.0        -1101.29602    .
  121.0      0.0        -1099.11218    .
  103.0      0.0        -1096.82336    .
  117.0      0.0        -1094.43066    .
  145.0      0.0        -1091.93237    .
  113.0      0.0        -1089.33716    .
  139.0      0.0        -1086.64270    .
  115.0      0.0        -1083.85059    .
  156.0      0.0        -1080.96606    .
  146.0      0.0        -1077.98901    .
  136.0      0.0        -1074.92114    .
  140.0      0.0        -1071.76477    .
  120.0      0.0        -1068.52222    .
  147.0      0.0        -1065.19434    .
  95.0       0.0        -1061.78333    .
  167.0      0.0        -1058.29187    .
  94.0       0.0        -1054.72180    .
  149.0      0.0        -1051.07227    .
  124.0      0.0        -1047.34900    .
  177.0      0.0        -1043.55042    .
  103.0      0.0        -1039.67969    .
  180.0      0.0        -1035.73718    .
  68.0       0.0        -1031.72900    .
  176.0      0.0        -1027.65002    .
  140.0      0.0        -1023.50647    .
  136.0      0.0        -1019.29803    .
  167.0      0.0        -1015.02740    .
  158.0      0.0        -1010.69629    .
  104.0      0.0        -1006.30554    .
  159.0      0.0        -1001.85657    .
  84.0       0.0        -997.35040     .
  143.0      0.0        -992.78967     .
  139.0      0.0        -988.17621     .
  155.0      0.0        -983.50940     .
  173.0      0.0        -978.79260     .
  113.0      0.0        -974.02576     .
  171.0      0.0        -969.21167     .
  146.0      0.0        -964.35107     .
  95.0       0.0        -959.44507     .
  155.0      0.0        -954.49585     .
  123.0      0.0        -949.50256     .
  127.0      0.0        -944.46887     .
  125.0      0.0        -939.39508     .
  109.0      0.0        -934.28302     .
  140.0      0.0        -929.13300     .
  125.0      0.0        -923.94684     .
  138.0      0.0        -918.72577     .
  153.0      0.0        -913.46979     .
  134.0      0.0        -908.18274     .
  125.0      0.0        -902.86359     .
  169.0      0.0        -897.51367     .
  142.0      0.0        -892.13434     .
  126.0      0.0        -886.72717     .
  86.0       0.0        -881.29370     .
  132.0      0.0        -875.83295     .
  95.0       0.0        -870.34839     .
  116.0      0.0        -864.84003     .
  227.0      0.0        -859.30853     .
  110.0      0.0        -853.75543     .
  113.0      0.0        -848.18030     .
  122.0      0.0        -842.58679     .
  144.0      0.0        -836.97437     .
  163.0      0.0        -831.34369     .
  155.0      0.0        -825.69611     .
  192.0      0.0        -820.03326     .
  115.0      0.0        -814.35455     .
  180.0      0.0        -808.66168     .
  109.0      0.0        -802.95691     .
  159.0      0.0        -797.23865     .
  181.0      0.0        -791.50879     .
  97.0       0.0        -785.76831     .
  192.0      0.0        -780.01868     .
  127.0      0.0        -774.25970     .
  132.0      0.0        -768.49261     .
  131.0      0.0        -762.71875     .
  134.0      0.0        -756.93756     .
  71.0       0.0        -751.15118     .
  130.0      0.0        -745.35913     .
  129.0      0.0        -739.56366     .
  137.0      0.0        -733.76434     .
  167.0      0.0        -727.96222     .
  142.0      0.0        -722.15784     .
  186.0      0.0        -716.35248     .
  132.0      0.0        -710.54608     .
  169.0      0.0        -704.73950     .
  161.0      0.0        -698.93427     .
  159.0      0.0        -693.13000     .
  141.0      0.0        -687.32782     .
  161.0      0.0        -681.52814     .
  141.0      0.0        -675.73218     .
  155.0      0.0        -669.93939     .
  52.0       0.0        -664.15173     .
  157.0      0.0        -658.36865     .
  95.0       0.0        -652.59180     .
  144.0      0.0        -646.82056     .
  99.0       0.0        -641.05737     .
  150.0      0.0        -635.29980     .
  106.0      0.0        -629.55145     .
  150.0      0.0        -623.81116     .
  98.0       0.0        -618.08014     .
  140.0      0.0        -612.35797     .
  100.0      0.0        -606.64630     .
  192.0      0.0        -600.94464     .
  120.0      0.0        -595.25476     .
  171.0      0.0        -589.57532     .
  86.0       0.0        -583.90851     .
  146.0      0.0        -578.25446     .
  120.0      0.0        -572.61273     .
  146.0      0.0        -566.98389     .
  102.0      0.0        -561.36890     .
  158.0      0.0        -555.76880     .
  87.0       0.0        -550.18280     .
  145.0      0.0        -544.61188     .
  141.0      0.0        -539.05579     .
  98.0       0.0        -533.51611     .
  168.0      0.0        -527.99200     .
  106.0      0.0        -522.48529     .
  155.0      0.0        -516.99469     .
  117.0      0.0        -511.52206     .
  139.0      0.0        -506.06641     .
  159.0      0.0        -500.62869     .
  68.0       0.0        -495.20923     .
  141.0      0.0        -489.80875     .
  134.0      0.0        -484.42728     .
  141.0      0.0        -479.06519     .
  130.0      0.0        -473.72198     .
  109.0      0.0        -468.39896     .
  88.0       0.0        -463.09604     .
  179.0      0.0        -457.81378     .
  62.0       0.0        -452.55170     .
  153.0      0.0        -447.31134     .
  123.0      0.0        -442.09161     .
  162.0      0.0        -436.89374     .
  76.0       0.0        -431.71747     .
  159.0      0.0        -426.56326     .
  117.0      0.0        -421.43115     .
  181.0      0.0        -416.32211     .
  78.0       0.0        -411.23532     .
  141.0      0.0        -406.17133     .
  125.0      0.0        -401.13037     .
  88.0       0.0        -396.11365     .
  193.0      0.0        -391.11972     .
  105.0      0.0        -386.14960     .
  207.0      0.0        -381.20358     .
  68.0       0.0        -376.28189     .
  174.0      0.0        -371.38434     .
  119.0      0.0        -366.51117     .
  65.0       0.0        -361.66260     .
  95.0       0.0        -356.83914     .
  101.0      0.0        -352.04059     .
  164.0      0.0        -347.26691     .
  99.0       0.0        -342.51859     .
  131.0      0.0        -337.79617     .
  164.0      0.0        -333.09875     .
  139.0      0.0        -328.42722     .
  85.0       0.0        -323.78140     .
  160.0      0.0        -319.16165     .
  137.0      0.0        -314.56799     .
  97.0       0.0        -310.00027     .
  167.0      0.0        -305.45871     .
  151.0      0.0        -300.94363     .
  153.0      0.0        -296.45551     .
  120.0      0.0        -291.99371     .
  148.0      0.0        -287.55820     .
  133.0      0.0        -283.14987     .
  95.0       0.0        -278.76843     .
  127.0      0.0        -274.41345     .
  132.0      0.0        -270.08560     .
  129.0      0.0        -265.78448     .
  117.0      0.0        -261.51141     .
  78.0       0.0        -257.26471     .
  133.0      0.0        -253.04549     .
  102.0      0.0        -248.85326     .
  125.0      0.0        -244.68901     .
  118.0      0.0        -240.55165     .
  118.0      0.0        -236.44164     .
  100.0      0.0        -232.35916     .
  161.0      0.0        -228.30450     .
  69.0       0.0        -224.27701     .
  91.0       0.0        -220.27693     .
  165.0      0.0        -216.30447     .
  48.0       0.0        -212.36026     .
  160.0      0.0        -208.44295     .
  110.0      0.0        -204.55315     .
  133.0      0.0        -200.69110     .
  115.0      0.0        -196.85678     .
  160.0      0.0        -193.05043     .
  124.0      0.0        -189.27097     .
  160.0      0.0        -185.51973     .
  112.0      0.0        -181.79552     .
  154.0      0.0        -178.09937     .
  107.0      0.0        -174.43095     .
  113.0      0.0        -170.78967     .
  182.0      0.0        -167.17606     .
  132.0      0.0        -163.59048     .
  72.0       0.0        -160.03180     .
  142.0      0.0        -156.50069     .
  144.0      0.0        -152.99727     .
  105.0      0.0        -149.52129     .
  116.0      0.0        -146.07249     .
  139.0      0.0        -142.65118     .
  113.0      0.0        -139.25690     .
  134.0      0.0        -135.89032     .
  135.0      0.0        -132.55089     .
  215.0      0.0        -129.23827     .
  131.0      0.0        -125.95313     .
  128.0      0.0        -122.69518     .
  123.0      0.0        -119.46397     .
  136.0      0.0        -116.25964     .
  169.0      0.0        -113.08244     .
  169.0      0.0        -109.93199     .
  130.0      0.0        -106.80847     .
  63.0       0.0        -103.71165     .
  150.0      0.0        -100.64146     .
  76.0       0.0        -97.59773      .
  126.0      0.0        -94.58080      .
  140.0      0.0        -91.59020      .
  122.0      0.0        -88.62593      .
  153.0      0.0        -85.68787      .
  148.0      0.0        -82.77622      .
  112.0      0.0        -79.89063      .
  139.0      0.0        -77.03111      .
  127.0      0.0        -74.19758      .
  143.0      0.0        -71.39009      .
  88.0       0.0        -68.60819      .
  75.0       0.0        -65.85207      .
  150.0      0.0        -63.12158      .
  51.0       0.0        -60.41682      .
  125.0      0.0        -57.73726      .
  119.0      0.0        -55.08313      .
  138.0      0.0        -52.45428      .
  113.0      0.0        -49.85076      .
  138.0      0.0        -47.27205      .
  123.0      0.0        -44.71847      .
  133.0      0.0        -42.18956      .
  144.0      0.0        -39.68553      .
  115.0      0.0        -37.20641      .
  125.0      0.0        -34.75156      .
  107.0      0.0        -32.32118      .
  117.0      0.0        -29.91508      .
  109.0      0.0        -27.53360      .
  105.0      0.0        -25.17594      .
  181.0      0.0        -22.84234      .
  97.0       0.0        -20.53263      .
  144.0      0.0        -18.24681      .
  141.0      0.0        -15.98469      .
  136.0      0.0        -13.74599      .
  121.0      0.0        -11.53084      .
  84.0       0.0         -9.33916      .
  143.0      0.0         -7.17050      .
  82.0       0.0         -5.02497      .
  73.0       0.0         -2.90245      .
  179.0      0.0         -0.80302      .
  73.0       0.0          1.27387      .
  82.0       0.0          3.32808      .
  152.0      0.0          5.35980      .
  166.0      0.0          7.36907      .
  93.0       0.0          9.35615      .
  119.0      0.0         11.32116      .
  138.0      0.0         13.26411      .
  97.0       0.0         15.18524      .
  96.0       0.0         17.08434      .
  126.0      0.0         18.96203      .
  72.0       0.0         20.81814      .
  126.0      0.0         22.65287      .
  111.0      0.0         24.46623      .
  166.0      0.0         26.25853      .
  132.0      0.0         28.02996      .
  74.0       0.0         29.78049      .
  131.0      0.0         31.51006      .
  141.0      0.0         33.21923      .
  76.0       0.0         34.90786      .
  115.0      0.0         36.57622      .
  138.0      0.0         38.22413      .
  100.0      0.0         39.85213      .
  125.0      0.0         41.46021      .
  109.0      0.0         43.04837      .
  94.0       0.0         44.61681      .
  159.0      0.0         46.16569      .
  138.0      0.0         47.69523      .
  88.0       0.0         49.20550      .
  159.0      0.0         50.69643      .
  111.0      0.0         52.16853      .
  126.0      0.0         53.62170      .
  152.0      0.0         55.05611      .
  65.0       0.0         56.47185      .
  117.0      0.0         57.86905      .
  115.0      0.0         59.24795      .
  148.0      0.0         60.60868      .
  110.0      0.0         61.95135      .
  183.0      0.0         63.27582      .
  79.0       0.0         64.58270      .
  136.0      0.0         65.87188      .
  63.0       0.0         67.14353      .
  128.0      0.0         68.39760      .
  109.0      0.0         69.63454      .
  136.0      0.0         70.85429      .
  141.0      0.0         72.05704      .
  94.0       0.0         73.24287      .
  96.0       0.0         74.41198      .
  117.0      0.0         75.56457      .
  132.0      0.0         76.70064      .
  83.0       0.0         77.82024      .
  151.0      0.0         78.92379      .
  131.0      0.0         80.01126      .
  98.0       0.0         81.08283      .
  136.0      0.0         82.13846      .
  125.0      0.0         83.17852      .
  124.0      0.0         84.20310      .
  108.0      0.0         85.21216      .
  136.0      0.0         86.20605      .
  160.0      0.0         87.18467      .
  132.0      0.0         88.14845      .
  149.0      0.0         89.09734      .
  101.0      0.0         90.03144      .
  162.0      0.0         90.95087      .
  129.0      0.0         91.85595      .
  156.0      0.0         92.74664      .
  97.0       0.0         93.62312      .
  79.0       0.0         94.48549      .
  160.0      0.0         95.33403      .
  133.0      0.0         96.16859      .
  119.0      0.0         96.98959      .
  134.0      0.0         97.79692      .
  113.0      0.0         98.59093      .
  134.0      0.0         99.37164      .
  100.0      0.0         100.13918     .
  121.0      0.0         100.89356     .
  138.0      0.0         101.63515     .
  107.0      0.0         102.36397     .
  109.0      0.0         103.08006     .
  182.0      0.0         103.78362     .
  104.0      0.0         104.47483     .
  141.0      0.0         105.15373     .
  158.0      0.00633     105.82050     105.83472
  103.0      0.00971     106.47523     106.49016
  162.0      0.00617     107.11803     107.13364
  95.0       0.01053     107.74911     107.76536
  103.0      0.00971     108.36851     108.38543
  125.0      0.00800     108.97639     108.99394
  148.0      0.00676     109.57285     109.59100
  97.0       0.01031     110.15804     110.17678
  80.0       0.01250     110.73208     110.75140
  101.0      0.00990     111.29509     111.31497
  117.0      0.00855     111.84709     111.86756
  111.0      0.00901     112.38840     112.40942
  158.0      0.00633     112.91901     112.94055
  85.0       0.01176     113.43905     113.46117
  188.0      0.00532     113.94864     113.97127
  98.0       0.01020     114.44798     114.47109
  136.0      0.00735     114.93703     114.96070
  112.0      0.00893     115.41606     115.44025
  124.0      0.00806     115.88507     115.90980
  96.0       0.01042     116.34428     116.36954
  125.0      0.00800     116.79377     116.81954
  157.0      0.00637     117.23362     117.25995
  106.0      0.00943     117.66396     117.69083
  174.0      0.00575     118.08495     118.11237
  126.0      0.00794     118.49664     118.52466
  140.0      0.00714     118.89918     118.92782
  108.0      0.00926     119.29272     119.32195
  178.0      0.00562     119.67722     119.70718
  76.0       0.01316     120.05299     120.08361
  182.0      0.00549     120.42004     120.45142
  119.0      0.00840     120.77849     120.81064
  122.0      0.00820     121.12838     121.16142
  154.0      0.00649     121.46999     121.50389
  161.0      0.00621     121.80331     121.83818
  84.0       0.01190     122.12847     122.16444
  156.0      0.00641     122.44553     122.48278
  117.0      0.00855     122.75469     122.79361
  163.0      0.00613     123.05599     123.09754
  136.0      0.00735     123.34959     123.39602
  158.0      0.00633     123.63554     123.69163
  158.0      0.00633     123.91393     123.98865
  116.0      0.00862     124.18497     124.29237
  147.0      0.00680     124.44866     124.60779
  83.0       0.01205     124.70515     124.93656
  105.0      0.00952     124.95451     125.27449
  127.0      0.00787     125.19688     125.61076
  149.0      0.00671     125.43234     125.93184
  139.0      0.00719     125.66099     126.22804
  131.0      0.00763     125.88293     126.49825
  139.0      0.00719     126.09830     126.74822
  188.0      0.00532     126.30715     126.98491
  106.0      0.00943     126.50957     127.21201
  128.0      0.00781     126.70569     127.43089
  148.0      0.00676     126.89558     127.64302
  75.0       0.01333     127.07937     127.85027
  138.0      0.00725     127.25714     128.05344
  84.0       0.01190     127.42896     128.25208
  109.0      0.00917     127.59494     128.44592
  124.0      0.00806     127.75523     128.63562
  143.0      0.00699     127.90981     128.82190
  139.0      0.00719     128.05885     129.00429
  139.0      0.00719     128.20245     129.18199
  160.0      0.00625     128.34070     129.35442
  142.0      0.00704     128.47359     129.52113
  174.0      0.00575     128.60130     129.68227
  164.0      0.00610     128.72395     129.83865
  64.0       0.01563     128.84158     129.99171
  178.0      0.00562     128.95430     130.14310
  118.0      0.00847     129.06212     130.29408
  147.0      0.00680     129.16524     130.44582
  72.0       0.01389     129.26367     130.59940
  100.0      0.01000     129.35753     130.75630
  179.0      0.00559     129.44684     130.91864
  131.0      0.00763     129.53178     131.08997
  144.0      0.00694     129.61240     131.27551
  83.0       0.01205     129.68874     131.48233
  133.0      0.00752     129.76097     131.71574
  162.0      0.00617     129.82907     131.97115
  103.0      0.00971     129.89314     132.22232
  164.0      0.00610     129.95334     132.41560
  105.0      0.00952     130.00966     132.48256
  169.0      0.00592     130.06221     132.37283
  108.0      0.00926     130.11108     132.08890
  133.0      0.00752     130.15634     131.69496
  90.0       0.01111     130.19804     131.28758
  184.0      0.00543     130.23633     130.94923
  117.0      0.00855     130.27122     130.71750
  141.0      0.00709     130.30280     130.58543
  80.0       0.01250     130.33116     130.52344
  165.0      0.00606     130.35634     130.50072
  141.0      0.00709     130.37842     130.49588
  154.0      0.00649     130.39749     130.49747
  104.0      0.00962     130.41367     130.50053
  153.0      0.00654     130.42690     130.50323
  104.0      0.00962     130.43733     130.50481
  155.0      0.00645     130.44507     130.50500
  115.0      0.00870     130.45013     130.50365
  99.0       0.01010     130.45259     130.50061
  134.0      0.00746     130.45255     130.49580
  118.0      0.00847     130.45003     130.48907
  129.0      0.00775     130.44508     130.48050
  131.0      0.00763     130.43784     130.46999
  126.0      0.00794     130.42836     130.45758
  139.0      0.00719     130.41663     130.44327
  127.0      0.00787     130.40277     130.42699
  139.0      0.00719     130.38686     130.40894
  100.0      0.01000     130.36890     130.38901
  87.0       0.01149     130.34904     130.36729
  139.0      0.00719     130.32727     130.34384
  137.0      0.00730     130.30368     130.31870
  89.0       0.01124     130.27832     130.29187
  153.0      0.00654     130.25125     130.26346
  139.0      0.00719     130.22256     130.23352
  126.0      0.00794     130.19223     130.20198
  98.0       0.01020     130.16042     130.16907
  109.0      0.00917     130.12712     130.13474
  130.0      0.00769     130.09238     130.09903
  106.0      0.00943     130.05632     130.06201
  203.0      0.00493     130.01889     130.02371
  97.0       0.01031     129.98026     129.98425
  181.0      0.00552     129.94043     129.94362
  143.0      0.00699     129.89943     129.90190
  133.0      0.00752     129.85735     129.85910
  151.0      0.00662     129.81421     129.81532
  133.0      0.00752     129.77013     129.77057
  126.0      0.00794     129.72507     129.72491
  99.0       0.01010     129.67915     129.67841
  174.0      0.00575     129.63239     129.63110
  114.0      0.00877     129.58478     129.58301
  199.0      0.00503     129.53650     129.53419
  153.0      0.00654     129.48752     129.48473
  104.0      0.00962     129.43788     129.43462
  220.0      0.00455     129.38763     129.38397
  55.0       0.01818     129.33687     129.33275
  158.0      0.00633     129.28557     129.28107
  119.0      0.00840     129.23383     129.22897
  186.0      0.00538     129.18166     129.17647
  121.0      0.00826     129.12910     129.12355
  175.0      0.00571     129.07626     129.07036
  132.0      0.00758     129.02310     129.01691
  157.0      0.00637     128.96973     128.96320
  116.0      0.00862     128.91612     128.90933
  136.0      0.00735     128.86238     128.85532
  129.0      0.00775     128.80852     128.80116
  181.0      0.00552     128.75455     128.74698
  113.0      0.00885     128.70055     128.69278
  176.0      0.00568     128.64653     128.63853
  78.0       0.01282     128.59261     128.58441
  227.0      0.00441     128.53870     128.53036
  121.0      0.00826     128.48495     128.47636
  140.0      0.00714     128.43134     128.42262
  161.0      0.00621     128.37790     128.36902
  77.0       0.01299     128.32469     128.31569
  177.0      0.00565     128.27174     128.26262
  143.0      0.00699     128.21909     128.20982
  128.0      0.00781     128.16675     128.15736
  161.0      0.00621     128.11479     128.10529
  125.0      0.00800     128.06320     128.05367
  151.0      0.00662     128.01201     128.00238
  136.0      0.00735     127.96135     127.95162
  152.0      0.00658     127.91113     127.90137
  183.0      0.00546     127.86143     127.85162
  187.0      0.00535     127.81232     127.80244
  109.0      0.00917     127.76376     127.75384
  136.0      0.00735     127.71580     127.70586
  102.0      0.00980     127.66850     127.65855
  149.0      0.00671     127.62189     127.61194
  167.0      0.00599     127.57589     127.56595
  149.0      0.00671     127.53069     127.52077
  100.0      0.01000     127.48625     127.47636
  120.0      0.00833     127.44251     127.43269
  169.0      0.00592     127.39967     127.38983
  129.0      0.00775     127.35761     127.34786
  127.0      0.00787     127.31641     127.30666
  190.0      0.00526     127.27609     127.26646
  105.0      0.00952     127.23669     127.22712
  127.0      0.00787     127.19823     127.18873
  109.0      0.00917     127.16064     127.15128
  129.0      0.00775     127.12409     127.11481
  177.0      0.00565     127.08852     127.07934
  136.0      0.00735     127.05402     127.04493
  137.0      0.00730     127.02048     127.01157
  135.0      0.00741     126.98808     126.97923
  130.0      0.00769     126.95673     126.94805
  142.0      0.00704     126.92645     126.91793
  140.0      0.00714     126.89733     126.88895
  170.0      0.00588     126.86933     126.86115
  78.0       0.01282     126.84248     126.83444
  131.0      0.00763     126.81689     126.80898
  131.0      0.00763     126.79238     126.78470
  145.0      0.00690     126.76917     126.88108
  105.0      0.00952     126.74712     126.86007
  153.0      0.00654     126.72643     126.84041
  150.0      0.00667     126.70692     126.82198
  133.0      0.00752     126.68869     126.80482
  150.0      0.00667     126.67181     126.78906
  115.0      0.00870     126.65622     126.77455
  149.0      0.00671     126.64193     126.76142
  128.0      0.00781     126.62901     126.74966
  125.0      0.00800     126.61748     126.73920
  152.0      0.00658     126.60725     126.73017
  118.0      0.00847     126.59841     126.72256
  133.0      0.00752     126.59102     126.71636
  189.0      0.00529     126.58499     126.71155
  136.0      0.00735     126.58040     126.70822
  148.0      0.00676     126.57724     126.70631
  138.0      0.00725     126.57552     126.70583
  119.0      0.00840     126.57529     126.70689
  83.0       0.01205     126.57646     126.70935
  118.0      0.00847     126.57916     126.71337
  143.0      0.00699     126.58334     126.71888
  137.0      0.00730     126.58902     126.72591
  196.0      0.00510     126.59617     126.73441
  126.0      0.00794     126.60485     126.74450
  162.0      0.00617     126.61504     126.75608
  135.0      0.00741     126.62679     126.76921
  152.0      0.00658     126.64007     126.78389
  105.0      0.00952     126.65487     126.80016
  153.0      0.00654     126.67126     126.81800
  126.0      0.00794     126.68921     126.83744
  175.0      0.00571     126.70869     126.85840
  177.0      0.00565     126.72973     126.88101
  123.0      0.00813     126.75240     126.90517
  186.0      0.00538     126.77662     126.93095
  83.0       0.01205     126.80244     126.95831
  136.0      0.00735     126.82985     126.98732
  121.0      0.00826     126.85888     127.01793
  204.0      0.00490     126.88947     127.05013
  81.0       0.01235     126.92170     127.08406
  134.0      0.00746     126.95551     127.11949
  148.0      0.00676     126.99097     127.15662
  118.0      0.00847     127.02802     127.19536
  204.0      0.00490     127.06670     127.23575
  88.0       0.01136     127.10702     127.27782
  190.0      0.00526     127.14893     127.32146
  174.0      0.00575     127.19247     127.36679
  106.0      0.00943     127.23762     127.41374
  112.0      0.00893     127.28447     127.46240
  162.0      0.00617     127.33289     127.51260
  131.0      0.00763     127.38294     127.56454
  139.0      0.00719     127.43469     127.61813
  181.0      0.00552     127.48795     127.67332
  134.0      0.00746     127.54295     127.73023
  186.0      0.00538     127.59953     127.78875
  164.0      0.00610     127.65773     127.84889
  133.0      0.00752     127.71758     127.91074
  132.0      0.00758     127.77911     127.97424
  139.0      0.00719     127.84216     128.03937
  195.0      0.00513     127.90691     128.10612
  126.0      0.00794     127.97327     128.17453
  195.0      0.00513     128.04123     128.24455
  132.0      0.00758     128.11087     128.31631
  140.0      0.00714     128.18207     128.38966
  182.0      0.00549     128.25488     128.46463
  140.0      0.00714     128.32936     128.54123
  152.0      0.00658     128.40536     128.61951
  85.0       0.01176     128.48306     128.69939
  122.0      0.00820     128.56232     128.78091
  146.0      0.00685     128.64319     128.86401
  102.0      0.00980     128.72565     128.94873
  158.0      0.00633     128.80962     129.03514
  136.0      0.00735     128.89529     129.12311
  143.0      0.00699     128.98248     129.21269
  77.0       0.01299     129.07127     129.30389
  148.0      0.00676     129.16162     129.39667
  84.0       0.01190     129.25354     129.49107
  132.0      0.00758     129.34703     129.58699
  128.0      0.00781     129.44205     129.68454
  90.0       0.01111     129.53859     129.78363
  147.0      0.00680     129.63675     129.88435
  184.0      0.00543     129.73640     129.98660
  157.0      0.00637     129.83759     130.09042
  106.0      0.00943     129.94028     130.19574
  187.0      0.00535     130.04453     130.30263
  133.0      0.00752     130.15021     130.41115
  180.0      0.00556     130.25746     130.52109
  125.0      0.00800     130.36623     130.63258
  180.0      0.00556     130.47639     130.74565
  174.0      0.00575     130.58813     130.86014
  152.0      0.00658     130.70128     130.97621
  159.0      0.00629     130.81592     131.09378
  134.0      0.00746     130.93199     131.21275
  189.0      0.00529     131.04953     131.33325
  99.0       0.01010     131.16846     131.45522
  162.0      0.00617     131.28889     131.57869
  123.0      0.00813     131.41069     131.70358
  117.0      0.00855     131.53391     131.82994
  185.0      0.00541     131.65860     131.95776
  131.0      0.00763     131.78459     132.08698
  164.0      0.00610     131.91199     132.21762
  135.0      0.00741     132.04079     132.34970
  147.0      0.00680     132.17093     132.48314
  129.0      0.00775     132.30243     132.61800
  102.0      0.00980     132.43529     132.75427
  100.0      0.01000     132.56947     132.89189
  130.0      0.00769     132.70500     133.03091
  132.0      0.00758     132.84186     133.17126
  140.0      0.00714     132.97998     133.31297
  171.0      0.00585     133.11940     133.45601
  194.0      0.00515     133.26016     133.60040
  126.0      0.00794     133.40213     133.74608
  244.0      0.00410     133.54543     133.89313
  98.0       0.01020     133.68990     134.16917
  157.0      0.00637     133.83566     134.32182
  226.0      0.00442     133.98264     134.47586
  153.0      0.00654     134.13083     134.63129
  208.0      0.00481     134.28023     134.78812
  134.0      0.00746     134.43085     134.94627
  128.0      0.00781     134.58264     135.10585
  140.0      0.00714     134.73561     135.26678
  112.0      0.00893     134.88969     135.42908
  132.0      0.00758     135.04495     135.59274
  135.0      0.00741     135.20139     135.75777
  104.0      0.00962     135.35895     135.92418
  152.0      0.00658     135.51756     136.09193
  95.0       0.01053     135.67731     136.26105
  176.0      0.00568     135.83818     136.43155
  100.0      0.01000     136.00009     136.60338
  135.0      0.00741     136.16306     136.77660
  206.0      0.00485     136.32707     136.95117
  113.0      0.00885     136.49219     137.12718
  175.0      0.00571     136.65829     137.30449
  176.0      0.00568     136.82539     137.48318
  129.0      0.00775     136.99355     137.66331
  203.0      0.00493     137.16263     137.84486
  155.0      0.00645     137.33275     138.02785
  120.0      0.00833     137.50377     138.21220
  184.0      0.00543     137.67581     138.39803
  131.0      0.00763     137.84872     138.58534
  133.0      0.00752     138.02263     138.77409
  105.0      0.00952     138.19740     138.96446
  129.0      0.00775     138.37302     139.15628
  105.0      0.00952     138.54964     139.34972
  162.0      0.00617     138.72710     139.54477
  158.0      0.00633     138.90540     139.74146
  122.0      0.00820     139.08452     139.93985
  169.0      0.00592     139.26453     140.13998
  180.0      0.00556     139.44533     140.34198
  147.0      0.00680     139.62694     140.54582
  135.0      0.00741     139.80933     140.75169
  109.0      0.00917     139.99254     140.95959
  120.0      0.00833     140.17645     141.16962
  137.0      0.00730     140.36118     141.38196
  135.0      0.00741     140.54659     141.59673
  83.0       0.01205     140.73276     141.81403
  186.0      0.00538     140.91965     142.03413
  142.0      0.00704     141.10722     142.25717
  144.0      0.00694     141.29547     142.48343
  130.0      0.00769     141.48441     142.71318
  124.0      0.00806     141.67403     142.94675
  150.0      0.00667     141.86429     143.18452
  130.0      0.00769     142.05515     143.42699
  153.0      0.00654     142.24658     143.67471
  134.0      0.00746     142.43872     143.92827
  168.0      0.00595     142.63136     144.18857
  70.0       0.01429     142.82465     144.45659
  209.0      0.00478     143.01846     144.73355
  109.0      0.00917     143.21281     145.02112
  142.0      0.00704     143.40773     145.32149
  135.0      0.00741     143.60320     145.63741
  145.0      0.00690     143.79907     145.97273
  114.0      0.00877     143.99551     146.33241
  206.0      0.00485     144.19243     146.72307
  157.0      0.00637     144.38980     147.15320
  154.0      0.00649     144.58763     147.63324
  146.0      0.00685     144.78592     148.17606
  150.0      0.00667     144.98460     148.79604
  124.0      0.00806     145.18372     149.50774
  175.0      0.00571     145.38319     150.32117
  162.0      0.00617     145.58310     151.23488
  125.0      0.00800     145.78339     152.23076
  168.0      0.00595     145.98401     153.28355
  117.0      0.00855     146.18495     154.38716
  162.0      0.00617     146.38629     155.56235
  134.0      0.00746     146.58786     156.81316
  140.0      0.00714     146.78979     158.06758
  131.0      0.00763     146.99200     159.17502
  154.0      0.00649     147.19447     160.00668
  164.0      0.00610     147.39723     160.58191
  180.0      0.00556     147.60027     161.05627
  170.0      0.00588     147.80348     161.58047
  123.0      0.00813     148.00693     162.21074
  144.0      0.00694     148.21065     162.94351
  117.0      0.00855     148.41454     163.78030
  175.0      0.00571     148.61858     164.71127
  163.0      0.00613     148.82281     165.65874
  124.0      0.00806     149.02721     166.51544
  185.0      0.00541     149.23174     167.26624
  190.0      0.00526     149.43639     168.01503
  196.0      0.00510     149.64119     168.87555
  141.0      0.00709     149.84607     169.89275
  231.0      0.00433     150.05104     171.04915
  166.0      0.00602     150.25612     172.27431
  169.0      0.00592     150.46126     173.47124
  77.0       0.01299     150.66643     174.58330
  180.0      0.00556     150.87167     175.58827
  125.0      0.00800     151.07693     176.40427
  188.0      0.00532     151.28223     176.84091
  164.0      0.00610     151.48749     176.65343
  207.0      0.00483     151.69275     175.66064
  177.0      0.00565     151.89803     173.86781
  252.0      0.00397     152.10326     171.51959
  138.0      0.00725     152.30841     168.99791
  176.0      0.00568     152.51353     166.63329
  97.0       0.01031     152.71855     164.60641
  170.0      0.00588     152.92351     162.96880
  136.0      0.00735     153.12840     161.69904
  154.0      0.00649     153.33316     160.74628
  166.0      0.00602     153.53783     160.05220
  140.0      0.00714     153.74234     159.56184
  138.0      0.00725     153.94669     159.22800
  110.0      0.00909     154.15091     159.01251
  211.0      0.00474     154.35495     158.88611
  136.0      0.00735     154.55884     158.82692
  176.0      0.00568     154.76250     158.81926
  143.0      0.00699     154.96599     158.85181
  173.0      0.00578     155.16928     158.91652
  108.0      0.00926     155.37234     159.00751
  164.0      0.00610     155.57509     159.12018
  144.0      0.00694     155.77771     159.25134
  125.0      0.00800     155.98001     159.44348
  215.0      0.00465     156.18207     159.60445
  164.0      0.00610     156.38380     159.77751
  134.0      0.00746     156.58530     159.96135
  162.0      0.00617     156.78642     160.15479
  147.0      0.00680     156.98730     160.35699
  221.0      0.00452     157.18784     160.56720
  103.0      0.00971     157.38803     160.78487
  188.0      0.00532     157.58786     161.00940
  138.0      0.00725     157.78740     161.24062
  195.0      0.00513     157.98651     161.47810
  136.0      0.00735     158.18526     161.72163
  182.0      0.00549     158.38361     161.97107
  155.0      0.00645     158.58163     162.22627
  190.0      0.00526     158.77919     162.48726
  176.0      0.00568     158.97630     162.75394
  196.0      0.00510     159.17305     163.02637
  154.0      0.00649     159.36931     167.93993
  186.0      0.00538     159.56512     168.42924
  175.0      0.00571     159.76050     168.93875
  162.0      0.00617     159.95543     169.46988
  170.0      0.00588     160.14990     170.02448
  167.0      0.00599     160.34378     170.60428
  190.0      0.00526     160.53729     171.21155
  136.0      0.00735     160.73024     171.84880
  163.0      0.00613     160.92268     172.51877
  147.0      0.00680     161.11456     173.22470
  178.0      0.00562     161.30592     173.97012
  159.0      0.00629     161.49681     174.75929
  216.0      0.00463     161.68707     175.59683
  143.0      0.00699     161.87682     176.48853
  132.0      0.00758     162.06601     177.44048
  170.0      0.00588     162.25462     178.46046
  132.0      0.00758     162.44264     179.55721
  176.0      0.00568     162.63000     180.74123
  144.0      0.00694     162.81686     182.02512
  180.0      0.00556     163.00302     183.42389
  246.0      0.00407     163.18858     184.95624
  182.0      0.00549     163.37358     186.64478
  260.0      0.00385     163.55792     188.51805
  197.0      0.00508     163.74158     190.61249
  224.0      0.00446     163.92459     192.97612
  233.0      0.00429     164.10701     195.67561
  259.0      0.00386     164.28870     198.81042
  311.0      0.003215    164.46976     202.53864
  247.0      0.00405     164.65009     207.12218
  320.0      0.003125    164.82979     212.99078
  335.0      0.002985    165.00876     220.81720
  244.0      0.00410     165.18703     231.57916
  342.0      0.002924    165.36458     246.57353
  289.0      0.003460    165.54147     277.00418
  364.0      0.002747    165.71759     305.59610
  411.0      0.002433    165.89299     341.98309
  376.0      0.002660    166.06764     384.98807
  471.0      0.002123    166.24155     432.54657
  472.0      0.002119    166.41472     483.05704
  420.0      0.002381    166.58714     532.05865
  505.0      0.001980    166.75879     570.96216
  606.0      0.001650    166.92969     597.43402
  571.0      0.001751    167.09982     619.85876
  679.0      0.001473    167.26912     645.66132
  718.0      0.001393    167.43765     677.11353
  732.0      0.001366    167.60541     713.69122
  902.0      0.001109    167.77238     751.41022
  957.0      0.001045    167.93851     790.22601
  1076.0     0.000929    168.10384     836.63666
  1223.0     0.000818    168.26839     894.30792
  1397.0     0.000716    168.43210     960.49805
  1550.0     0.000645    168.59499     1028.95483
  1635.0     0.000612    168.75703     1093.46497
  1701.0     0.000588    168.91823     1142.80847
  1801.0     0.000555    169.07860     1160.21558
  1776.0     0.000563    169.23811     1137.42505
  1719.0     0.000582    169.39677     1087.84277
  1813.0     0.000552    169.55464     1030.96545
  1726.0     0.000579    169.71159     973.01160
  1643.0     0.000609    169.86768     923.22864
  1544.0     0.000648    170.02289     895.05457
  1566.0     0.000639    170.17726     890.81244
  1552.0     0.000644    170.33080     904.77063
  1565.0     0.000639    170.48341     925.56177
  1580.0     0.000633    170.63512     951.25110
  1534.0     0.000652    170.78593     990.12012
  1509.0     0.000663    170.93590     1044.95862
  1517.0     0.000659    171.08490     1111.64636
  1548.0     0.000646    171.23306     1187.58899
  1593.0     0.000628    171.38031     1268.25513
  1447.0     0.000691    171.52661     1333.22852
  1233.0     0.000811    171.67201     1351.56897
  1024.0     0.000977    171.81660     1290.95313
  919.0      0.001088    171.96017     1137.95581
  653.0      0.001531    172.10284     927.59357
  581.0      0.001721    172.24461     719.09412
  436.0      0.002294    172.38542     550.07916
  335.0      0.002985    172.52534     430.26196
  260.0      0.00385     172.66432     353.23798
  309.0      0.003236    172.80234     306.64209
  163.0      0.00613     172.93950     278.69214
  255.0      0.00392     173.07567     261.05829
  159.0      0.00629     173.21088     248.92313
  192.0      0.00521     173.34520     239.85245
  224.0      0.00446     173.47852     232.68089
  155.0      0.00645     173.61090     226.82269
  173.0      0.00578     173.74239     221.94244
  249.0      0.00402     173.87289     217.82060
  183.0      0.00546     174.00246     214.30083
  129.0      0.00775     174.13103     211.26686
  232.0      0.00431     174.25871     208.63013
  154.0      0.00649     174.38539     206.32202
  206.0      0.00485     174.51112     204.28864
  143.0      0.00699     174.63591     202.48708
  200.0      0.00500     174.75972     200.88280
  192.0      0.00521     174.88257     199.44769
  163.0      0.00613     175.00452     198.15869
  158.0      0.00633     175.12543     196.99675
  182.0      0.00549     175.24545     195.94589
  160.0      0.00625     175.36449     194.99263
  136.0      0.00735     175.48251     194.12563
  222.0      0.00450     175.59966     193.33510
  98.0       0.01020     175.71573     192.61275
  201.0      0.00498     175.83093     191.95137
  185.0      0.00541     175.94514     191.34471
  204.0      0.00490     176.05836     190.78737
  255.0      0.00392     176.17065     190.27458
  140.0      0.00714     176.28197     189.80209
  171.0      0.00585     176.39233     189.36624
  204.0      0.00490     176.50169     188.96373
  125.0      0.00800     176.61012     188.59160
  242.0      0.00413     176.71759     188.24736
  162.0      0.00617     176.82410     187.92867
  157.0      0.00637     176.92964     187.63333
  222.0      0.00450     177.03426     187.35960
  141.0      0.00709     177.13786     187.10562
  193.0      0.00518     177.24054     186.87001
  127.0      0.00787     177.34227     186.65135
  194.0      0.00515     177.44301     186.44827
  169.0      0.00592     177.54277     186.25975
  172.0      0.00581     177.64166     186.08464
  219.0      0.00457     177.73955     185.92206
  136.0      0.00735     177.83649     185.77107
  175.0      0.00571     177.93250     185.63087
  176.0      0.00568     178.02753     185.50076
  163.0      0.00613     178.12164     185.38008
  164.0      0.00610     178.21483     185.26807
  197.0      0.00508     178.30702     185.16435
  87.0       0.01149     178.39830     185.06818
  229.0      0.00437     178.48862     184.97920
  139.0      0.00719     178.57805     184.89693
  223.0      0.00448     178.66650     184.82091
  194.0      0.00515     178.75406     184.75073
  207.0      0.00483     178.84070     184.68608
  211.0      0.00474     178.92636     184.62653
  237.0      0.00422     179.01112     184.57188
  136.0      0.00735     179.09503     184.52174
  223.0      0.00448     179.17793     184.47589
  139.0      0.00719     179.25993     184.43402
  212.0      0.00472     179.34105     184.39594
  165.0      0.00606     179.42126     184.36139
  168.0      0.00595     179.50055     184.33012
  181.0      0.00552     179.57895     184.30199
  164.0      0.00610     179.65645     184.27679
  138.0      0.00725     179.73302     184.25435
  164.0      0.00610     179.80872     184.23456
  197.0      0.00508     179.88354     184.21718
  155.0      0.00645     179.95743     184.20206
  223.0      0.00448     180.03047     184.18913
  187.0      0.00535     180.10266     184.17825
  232.0      0.00431     180.17395     184.16927
  141.0      0.00709     180.24438     184.16202
  184.0      0.00543     180.31392     184.15648
  166.0      0.00602     180.38266     184.15253
  198.0      0.00505     180.45044     184.15007
  164.0      0.00610     180.51744     184.14900
  190.0      0.00526     180.58354     184.14926
  233.0      0.00429     180.64883     184.15070
  150.0      0.00667     180.71330     184.15332
  206.0      0.00485     180.77689     184.15703
  186.0      0.00538     180.83966     184.16173
  208.0      0.00481     180.90160     184.16737
  202.0      0.00495     180.96272     184.17390
  236.0      0.00424     181.02301     184.18124
  203.0      0.00493     181.08250     184.18941
  214.0      0.00467     181.14117     184.19827
  181.0      0.00552     181.19907     184.20776
  141.0      0.00709     181.25615     184.21791
  142.0      0.00704     181.31244     184.22861
  257.0      0.00389     181.36792     184.23985
  175.0      0.00571     181.42264     184.25165
  187.0      0.00535     181.47656     184.26381
  205.0      0.00488     181.52972     184.27644
  197.0      0.00508     181.58212     184.28951
  202.0      0.00495     181.63377     184.30293
  217.0      0.00461     181.68466     184.31660
  161.0      0.00621     181.73473     184.33063
  163.0      0.00613     181.78412     184.34494
  185.0      0.00541     181.83270     184.35950
  168.0      0.00595     181.88068     184.37427
  251.0      0.00398     181.92786     184.38927
  226.0      0.00442     181.97430     184.40443
  220.0      0.00455     182.02003     184.41972
  209.0      0.00478     182.06505     184.43527
  216.0      0.00463     182.10938     184.45088
  159.0      0.00629     182.15303     184.46661
  184.0      0.00543     182.19591     184.48239
  143.0      0.00699     182.23819     184.49834
  188.0      0.00532     182.27979     184.51434
  137.0      0.00730     182.32066     184.53035
  238.0      0.00420     182.36089     184.54643
  160.0      0.00625     182.40045     184.56258
  210.0      0.00476     182.43936     184.57872
  184.0      0.00543     182.47766     184.59494
  190.0      0.00526     182.51527     184.61110
  164.0      0.00610     182.55225     184.62730
  187.0      0.00535     182.58864     184.64352
  252.0      0.00397     182.62439     184.65968
  144.0      0.00694     182.65955     184.67586
  212.0      0.00472     182.69409     184.69203
  168.0      0.00595     182.72795     184.70813
  173.0      0.00578     182.76132     184.72429
  186.0      0.00538     182.79407     184.74036
  176.0      0.00568     182.82625     184.75644
  231.0      0.00433     182.85785     184.77248
  134.0      0.00746     182.88892     184.78850
  225.0      0.00444     182.91940     184.80449
  169.0      0.00592     182.94931     184.82043
  186.0      0.00538     182.97870     184.83638
  224.0      0.00446     183.00760     184.85228
  186.0      0.00538     183.03590     184.86815
  224.0      0.00446     183.06374     184.88400
  230.0      0.00435     183.09100     184.89984
  177.0      0.00565     183.11778     184.91568
  178.0      0.00562     183.14412     184.93152
  171.0      0.00585     183.16992     184.94730
  273.0      0.00366     183.19528     184.96317
  187.0      0.00535     183.22009     184.97902
  200.0      0.00500     183.24451     184.99486
  214.0      0.00467     183.26843     185.01070
  184.0      0.00543     183.29192     185.02666
  294.0      0.003401    183.31493     185.04256
  191.0      0.00524     183.33757     185.05858
  236.0      0.00424     183.35973     185.07458
  215.0      0.00465     183.38145     185.09070
  210.0      0.00476     183.40283     185.10689
  205.0      0.00488     183.42377     185.12315
  231.0      0.00433     183.44429     185.13953
  170.0      0.00588     183.46443     185.15601
  182.0      0.00549     183.48425     185.17262
  191.0      0.00524     183.50365     185.18938
  209.0      0.00478     183.52272     185.20627
  226.0      0.00442     183.54140     185.22331
  102.0      0.00980     183.55978     185.24054
  235.0      0.00426     183.57776     185.25801
  187.0      0.00535     183.59544     185.27565
  237.0      0.00422     183.61285     185.29355
  187.0      0.00535     183.62985     185.31166
  208.0      0.00481     183.64662     185.33012
  203.0      0.00493     183.66312     185.34882
  191.0      0.00524     183.67928     185.36784
  186.0      0.00538     183.69516     185.38721
  167.0      0.00599     183.71078     185.40688
  220.0      0.00455     183.72610     185.42699
  214.0      0.00467     183.74129     185.44749
  171.0      0.00585     183.75612     185.46840
  232.0      0.00431     183.77077     185.48985
  143.0      0.00699     183.78516     185.51178
  196.0      0.00510     183.79933     185.53415
  166.0      0.00602     183.81332     185.55711
  220.0      0.00455     183.82709     185.58069
  164.0      0.00610     183.84070     185.60489
  218.0      0.00459     183.85410     185.62967
  157.0      0.00637     183.86736     185.65520
  253.0      0.00395     183.88042     185.68147
  205.0      0.00488     183.89333     185.70856
  237.0      0.00422     183.90608     185.73640
  228.0      0.00439     183.91872     185.76512
  167.0      0.00599     183.93123     185.79482
  209.0      0.00478     183.94357     185.82541
  186.0      0.00538     183.95587     185.85710
  243.0      0.00412     183.96806     185.88979
  256.0      0.00391     183.98013     185.92366
  194.0      0.00515     183.99210     185.95871
  214.0      0.00467     184.00403     185.99500
  164.0      0.00610     184.01582     186.03262
  283.0      0.00353     184.02766     186.07170
  190.0      0.00526     184.03941     186.11223
  237.0      0.00422     184.05107     186.15425
  176.0      0.00568     184.06276     186.19794
  207.0      0.00483     184.07445     186.24332
  231.0      0.00433     184.08609     186.29054
  178.0      0.00562     184.09769     186.33963
  248.0      0.00403     184.10938     186.39075
  181.0      0.00552     184.12099     186.44392
  251.0      0.00398     184.13269     186.49930
  141.0      0.00709     184.14441     186.55702
  188.0      0.00532     184.15616     186.61720
  246.0      0.00407     184.16797     186.67984
  183.0      0.00546     184.17989     186.74525
  188.0      0.00532     184.19183     186.81337
  190.0      0.00526     184.20390     186.88445
  194.0      0.00515     184.21594     186.95856
  198.0      0.00505     184.22816     187.03586
  259.0      0.00386     184.24049     187.11653
  158.0      0.00633     184.25294     187.20064
  236.0      0.00424     184.26549     187.28835
  167.0      0.00599     184.27818     187.37981
  207.0      0.00483     184.29105     187.47519
  196.0      0.00510     184.30405     187.57445
  236.0      0.00424     184.31723     187.67789
  222.0      0.00450     184.33055     187.78560
  231.0      0.00433     184.34407     187.89760
  190.0      0.00526     184.35777     188.01404
  266.0      0.00376     184.37167     188.13492
  145.0      0.00690     184.38582     188.26030
  264.0      0.00379     184.40012     188.39023
  163.0      0.00613     184.41470     188.52467
  206.0      0.00485     184.42944     188.66357
  250.0      0.00400     184.44450     188.80690
  135.0      0.00741     184.45984     188.95448
  242.0      0.00413     184.47534     189.10622
  188.0      0.00532     184.49120     189.26176
  168.0      0.00595     184.50734     189.42110
  218.0      0.00459     184.52371     189.58376
  179.0      0.00559     184.54045     189.74947
  217.0      0.00461     184.55745     189.91782
  228.0      0.00439     184.57478     190.08847
  194.0      0.00515     184.59244     190.26091
  233.0      0.00429     184.61046     190.43466
  189.0      0.00529     184.62878     190.60922
  207.0      0.00483     184.64749     190.78397
  246.0      0.00407     184.66656     190.95836
  158.0      0.00633     184.68602     191.13162
  220.0      0.00455     184.70586     191.30309
  173.0      0.00578     184.72604     191.47203
  201.0      0.00498     184.74669     191.63751
  226.0      0.00442     184.76773     191.79861
  229.0      0.00437     184.78918     191.95444
  204.0      0.00490     184.81105     192.10381
  164.0      0.00610     184.83334     192.24545
  211.0      0.00474     184.85612     192.37837
  206.0      0.00485     184.87929     192.50116
  216.0      0.00463     184.90298     192.61258
  260.0      0.00385     184.92714     192.71140
  186.0      0.00538     184.95178     192.79642
  251.0      0.00398     184.97690     192.86649
  176.0      0.00568     185.00255     192.92079
  302.0      0.003311    185.02864     192.95844
  222.0      0.00450     185.05531     192.97899
  248.0      0.00403     185.08249     192.98216
  138.0      0.00725     185.11020     192.96788
  224.0      0.00446     185.13849     192.93652
  207.0      0.00483     185.16730     192.88846
  209.0      0.00478     185.19666     192.82469
  221.0      0.00452     185.22665     192.74609
  156.0      0.00641     185.25711     192.65396
  233.0      0.00429     185.28821     192.54970
  171.0      0.00585     185.31995     192.43478
  249.0      0.00402     185.35225     192.31075
  159.0      0.00629     185.38516     192.17914
  209.0      0.00478     185.41873     192.04161
  156.0      0.00641     185.45285     191.89973
  249.0      0.00402     185.48773     191.75494
  107.0      0.00935     185.52318     191.60858
  239.0      0.00418     185.55931     191.46201
  208.0      0.00481     185.59610     191.31624
  214.0      0.00467     185.63356     191.17239
  118.0      0.00847     185.67174     191.03120
  264.0      0.00379     185.71056     190.89362
  264.0      0.00379     185.75006     190.76012
  184.0      0.00543     185.79033     190.63129
  202.0      0.00495     185.83128     190.50760
  198.0      0.00505     185.87297     190.38930
  211.0      0.00474     185.91541     190.14647
  228.0      0.00439     185.95854     190.04051
  251.0      0.00398     186.00249     189.94043
  187.0      0.00535     186.04713     189.84634
  225.0      0.00444     186.09254     189.75827
  191.0      0.00524     186.13876     189.67609
  204.0      0.00490     186.18579     189.59978
  230.0      0.00435     186.23355     189.52919
  186.0      0.00538     186.28209     189.46431
  233.0      0.00429     186.33148     189.40494
  185.0      0.00541     186.38171     189.35095
  200.0      0.00500     186.43268     189.30222
  120.0      0.00833     186.48453     189.25854
  225.0      0.00444     186.53722     189.21986
  159.0      0.00629     186.59070     189.18584
  231.0      0.00433     186.64513     189.15649
  197.0      0.00508     186.70035     189.13158
  216.0      0.00463     186.75650     189.11102
  143.0      0.00699     186.81348     189.09460
  232.0      0.00431     186.87138     189.08220
  132.0      0.00758     186.93015     189.07370
  237.0      0.00422     186.98979     189.06888
  151.0      0.00662     187.05040     189.06776
  228.0      0.00439     187.11180     189.07010
  197.0      0.00508     187.17429     189.07584
  144.0      0.00694     187.23759     189.08484
  219.0      0.00457     187.30191     189.09702
  151.0      0.00662     187.36710     189.11226
  213.0      0.00469     187.43330     189.13046
  173.0      0.00578     187.50041     189.15160
  229.0      0.00437     187.56851     189.17548
  224.0      0.00446     187.63759     189.20204
  198.0      0.00505     187.70769     189.23131
  173.0      0.00578     187.77869     189.26314
  187.0      0.00535     187.85077     189.29739
  187.0      0.00535     187.92378     189.33415
  199.0      0.00503     187.99785     189.37325
  188.0      0.00532     188.07294     189.41470
  180.0      0.00556     188.14900     189.45837
  169.0      0.00592     188.22615     189.50429
  238.0      0.00420     188.30429     189.55232
  165.0      0.00606     188.38353     189.60254
  224.0      0.00446     188.46384     189.65479
  193.0      0.00518     188.54514     189.70909
  237.0      0.00422     188.62753     189.76544
  184.0      0.00543     188.71095     189.82372
  236.0      0.00424     188.79549     189.88388
  164.0      0.00610     188.88110     189.94598
  214.0      0.00467     188.96783     190.00995
  211.0      0.00474     189.05563     190.07576
  172.0      0.00581     189.14455     190.14342
  204.0      0.00490     189.23457     190.21286
  208.0      0.00481     189.32571     190.28404
  160.0      0.00625     189.41797     190.35699
  208.0      0.00481     189.51137     190.43173
  189.0      0.00529     189.60593     190.50810
  162.0      0.00617     189.70164     190.58626
  192.0      0.00521     189.79843     190.66599
  208.0      0.00481     189.89644     190.74742
  224.0      0.00446     189.99556     190.83058
  228.0      0.00439     190.09584     190.91530
  159.0      0.00629     190.19733     191.00168
  201.0      0.00498     190.30000     191.08961
  153.0      0.00654     190.40382     191.17921
  225.0      0.00444     190.50885     191.27040
  178.0      0.00562     190.61510     191.36314
  143.0      0.00699     190.72253     191.45749
  294.0      0.003401    190.83122     191.55342
  118.0      0.00847     190.94101     191.65083
  196.0      0.00510     191.05214     191.74991
  180.0      0.00556     191.16441     191.85040
  170.0      0.00588     191.27795     191.95251
  250.0      0.00400     191.39276     192.05611
  172.0      0.00581     191.50870     192.16127
  213.0      0.00469     191.62598     192.26799
  148.0      0.00676     191.74446     192.37621
  187.0      0.00535     191.86424     192.48596
  170.0      0.00588     191.98526     192.59720
  181.0      0.00552     192.10757     192.70996
  208.0      0.00481     192.23109     192.82416
  183.0      0.00546     192.35594     192.93996
  191.0      0.00524     192.48209     193.05719
  164.0      0.00610     192.60951     193.17596
  185.0      0.00541     192.73820     193.29619
  188.0      0.00532     192.86819     194.27614
  158.0      0.00633     192.99954     194.40581
  210.0      0.00476     193.13214     194.53700
  200.0      0.00500     193.26607     194.66980
  190.0      0.00526     193.40128     194.80408
  168.0      0.00595     193.53784     194.93994
  208.0      0.00481     193.67570     195.07744
  165.0      0.00606     193.81494     195.21638
  177.0      0.00565     193.95549     195.35701
  190.0      0.00526     194.09744     195.49918
  142.0      0.00704     194.24063     195.64290
  286.0      0.003497    194.38519     195.78819
  185.0      0.00541     194.53117     195.93507
  274.0      0.00365     194.67841     196.08347
  219.0      0.00457     194.82710     196.23352
  217.0      0.00461     194.97708     196.38512
  164.0      0.00610     195.12846     196.53830
  244.0      0.00410     195.28120     196.69304
  195.0      0.00513     195.43538     196.84937
  204.0      0.00490     195.59090     197.00726
  171.0      0.00585     195.74777     197.16679
  203.0      0.00493     195.90605     197.32787
  167.0      0.00599     196.06572     197.49057
  208.0      0.00481     196.22678     197.65485
  179.0      0.00559     196.38924     197.82072
  177.0      0.00565     196.55321     197.98822
  209.0      0.00478     196.71840     198.15735
  179.0      0.00559     196.88512     198.32802
  192.0      0.00521     197.05325     198.50029
  186.0      0.00538     197.22267     198.67419
  163.0      0.00613     197.39363     198.84967
  170.0      0.00588     197.56602     199.02679
  185.0      0.00541     197.73979     199.20555
  152.0      0.00658     197.91498     199.38593
  189.0      0.00529     198.09164     199.56798
  189.0      0.00529     198.26973     199.75157
  233.0      0.00429     198.44922     199.93690
  149.0      0.00671     198.63014     200.12372
  231.0      0.00433     198.81262     200.31230
  204.0      0.00490     198.99641     200.50247
  193.0      0.00518     199.18176     200.69429
  207.0      0.00483     199.36850     200.88774
  225.0      0.00444     199.55669     201.08295
  224.0      0.00446     199.74631     201.27966
  134.0      0.00746     199.93747     201.47813
  181.0      0.00552     200.13007     201.67821
  191.0      0.00524     200.32402     201.87991
  186.0      0.00538     200.51956     202.08342
  221.0      0.00452     200.71655     202.28853
  191.0      0.00524     200.91505     202.49541
  233.0      0.00429     201.11497     202.70381
  173.0      0.00578     201.31638     202.91402
  209.0      0.00478     201.51923     203.12585
  222.0      0.00450     201.72362     203.33943
  147.0      0.00680     201.92943     203.55457
  203.0      0.00493     202.13675     203.77162
  226.0      0.00442     202.34557     203.99020
  185.0      0.00541     202.55583     204.21051
  178.0      0.00562     202.76764     204.43257
  216.0      0.00463     202.98094     204.65642
  158.0      0.00633     203.19571     204.88191
  160.0      0.00625     203.41196     205.10916
  202.0      0.00495     203.62973     205.33809
  175.0      0.00571     203.84897     205.56879
  248.0      0.00403     204.06975     205.80125
  164.0      0.00610     204.29202     206.03546
  261.0      0.00383     204.51573     206.27136
  205.0      0.00488     204.74106     206.50903
  170.0      0.00588     204.96779     206.74852
  228.0      0.00439     205.19606     206.98972
  206.0      0.00485     205.42577     207.23260
  208.0      0.00481     205.65712     207.47734
  180.0      0.00556     205.88989     207.72392
  191.0      0.00524     206.12416     207.97223
  206.0      0.00485     206.35997     208.22227
  231.0      0.00433     206.59732     208.47415
  251.0      0.00398     206.83611     208.72787
  181.0      0.00552     207.07648     208.98338
  243.0      0.00412     207.31831     209.24069
  211.0      0.00474     207.56165     209.49966
  199.0      0.00503     207.80656     209.76060
  231.0      0.00433     208.05293     210.02338
  210.0      0.00476     208.30086     210.28792
  240.0      0.00417     208.55022     210.55438
  185.0      0.00541     208.80116     210.82269
  271.0      0.00369     209.05368     211.09276
  210.0      0.00476     209.30763     211.36481
  240.0      0.00417     209.56306     211.63844
  208.0      0.00481     209.82008     211.91425
  220.0      0.00455     210.07854     212.19176
  246.0      0.00407     210.33858     212.47127
  257.0      0.00389     210.60016     212.75262
  203.0      0.00493     210.86327     213.03581
  234.0      0.00427     211.12778     213.32100
  215.0      0.00465     211.39391     213.60805
  209.0      0.00478     211.66145     213.89699
  218.0      0.00459     211.93054     214.18788
  278.0      0.00360     212.20126     214.48073
  228.0      0.00439     212.47337     214.77551
  238.0      0.00420     212.74704     215.07228
  211.0      0.00474     213.02216     215.37097
  265.0      0.00377     213.29884     215.67169
  236.0      0.00424     213.57707     215.97430
  238.0      0.00420     213.85681     216.27899
  296.0      0.003378    214.13792     216.58560
  224.0      0.00446     214.42065     216.89426
  253.0      0.00395     214.70486     217.20488
  302.0      0.003311    214.99062     217.51753
  208.0      0.00481     215.27791     217.83234
  301.0      0.003322    215.56662     218.14909
  255.0      0.00392     215.85689     218.46800
  189.0      0.00529     216.14864     218.78896
  255.0      0.00392     216.44186     219.11189
  172.0      0.00581     216.73656     219.43703
  231.0      0.00433     217.03284     219.76436
  229.0      0.00437     217.33058     220.09373
  258.0      0.00388     217.62984     220.42517
  212.0      0.00472     217.93063     220.75885
  261.0      0.00383     218.23283     221.09474
  212.0      0.00472     218.53656     221.43274
  274.0      0.00365     218.84172     221.77295
  244.0      0.00410     219.14842     222.11540
  250.0      0.00400     219.45667     222.46011
  207.0      0.00483     219.76628     222.80708
  253.0      0.00395     220.07742     223.15630
  204.0      0.00490     220.39008     223.50780
  224.0      0.00446     220.70418     223.86163
  252.0      0.00397     221.01976     224.21782
  219.0      0.00457     221.33682     224.57628
  215.0      0.00465     221.65533     224.93710
  240.0      0.00417     221.97531     225.30043
  275.0      0.00364     222.29684     225.66615
  272.0      0.00368     222.61977     226.03429
  198.0      0.00505     222.94412     226.40489
  228.0      0.00439     223.27003     226.77803
  219.0      0.00457     223.59734     227.15364
  249.0      0.00402     223.92610     227.53181
  231.0      0.00433     224.25629     227.91254
  244.0      0.00410     224.58795     228.29588
  261.0      0.00383     224.92108     228.68201
  234.0      0.00427     225.25569     229.07062
  240.0      0.00417     225.59167     229.46201
  283.0      0.00353     225.92915     229.85616
  230.0      0.00435     226.26807     230.25310
  278.0      0.00360     226.60841     230.65291
  248.0      0.00403     226.95010     231.05542
  264.0      0.00379     227.29326     231.46085
  259.0      0.00386     227.63789     231.86935
  261.0      0.00383     227.98396     232.28075
  254.0      0.00394     228.33134     232.69518
  298.0      0.003356    228.68030     233.11276
  234.0      0.00427     229.03050     233.53339
  248.0      0.00403     229.38223     233.95721
  307.0      0.003257    229.73538     234.38428
  219.0      0.00457     230.08992     234.81465
  351.0      0.002849    230.44582     235.24837
  210.0      0.00476     230.80305     235.68544
  363.0      0.002755    231.16173     236.12617
  209.0      0.00478     231.52184     236.57040
  226.0      0.00442     231.88329     237.01820
  283.0      0.00353     232.24622     237.46968
  252.0      0.00397     232.61044     237.92487
  248.0      0.00403     232.97597     238.38397
  275.0      0.00364     233.34299     238.84712
  245.0      0.00408     233.71129     239.31419
  282.0      0.00355     234.08101     239.78540
  220.0      0.00455     234.45210     240.26083
  308.0      0.003247    234.82452     240.74059
  233.0      0.00429     235.19823     241.22475
  241.0      0.00415     235.57336     241.71344
  232.0      0.00431     235.94984     242.20674
  260.0      0.00385     236.32764     242.70490
  273.0      0.00366     236.70674     243.20798
  240.0      0.00417     237.08720     243.71605
  243.0      0.00412     237.46902     244.22926
  297.0      0.003367    237.85214     244.74786
  246.0      0.00407     238.23662     245.27193
  290.0      0.003448    238.62236     245.80167
  246.0      0.00407     239.00938     246.33722
  217.0      0.00461     239.39769     246.87868
  289.0      0.003460    239.78737     247.42641
  244.0      0.00410     240.17838     247.98058
  287.0      0.003484    240.57062     248.54126
  231.0      0.00433     240.96411     249.10889
  330.0      0.003030    241.35898     249.68353
  216.0      0.00463     241.75508     250.26553
  316.0      0.003165    242.15240     250.85513
  220.0      0.00455     242.55098     251.45236
  208.0      0.00481     242.95088     252.05792
  268.0      0.00373     243.35201     252.67203
  271.0      0.00369     243.75446     253.29491
  209.0      0.00478     244.15810     253.92683
  277.0      0.00361     244.56306     254.56827
  279.0      0.00358     244.96915     255.21970
  223.0      0.00448     245.37656     255.88139
  238.0      0.00420     245.78503     256.55377
  261.0      0.00383     246.19485     257.23740
  266.0      0.00376     246.60587     257.93277
  265.0      0.00377     247.01816     258.64038
  308.0      0.003247    247.43159     259.36075
  298.0      0.003356    247.84624     262.28387
  305.0      0.003279    248.26201     263.12003
  273.0      0.00366     248.67914     263.97641
  238.0      0.00420     249.09732     264.85419
  253.0      0.00395     249.51663     265.75443
  182.0      0.00549     249.93721     266.67899
  360.0      0.002778    250.35907     267.62894
  186.0      0.00538     250.78189     268.60611
  269.0      0.00372     251.20595     269.85284
  275.0      0.00364     251.63118     270.89432
  305.0      0.003279    252.05753     271.96893
  256.0      0.00391     252.48503     273.07925
  259.0      0.00386     252.91362     274.22760
  216.0      0.00463     253.34340     275.41696
  263.0      0.00380     253.77412     276.65039
  319.0      0.003135    254.20621     277.93158
  222.0      0.00450     254.63937     279.26422
  303.0      0.003300    255.07355     280.65277
  254.0      0.00394     255.50888     282.10199
  260.0      0.00385     255.94533     283.61740
  264.0      0.00379     256.38269     285.20517
  256.0      0.00391     256.82129     286.87241
  254.0      0.00394     257.26099     288.62732
  302.0      0.003311    257.70175     290.47906
  259.0      0.00386     258.14343     292.43866
  266.0      0.00376     258.58624     294.51877
  330.0      0.003030    259.03012     296.63150
  282.0      0.00355     259.47513     299.00162
  214.0      0.00467     259.92108     301.54755
  307.0      0.003257    260.36798     304.29602
  298.0      0.003356    260.81601     307.28101
  336.0      0.002976    261.26501     310.54501
  294.0      0.003401    261.71515     314.14359
  298.0      0.003356    262.16620     318.15182
  254.0      0.00394     262.61819     322.67667
  322.0      0.003106    263.07129     327.87909
  278.0      0.00360     263.52530     334.01221
  313.0      0.003195    263.98022     341.47470
  306.0      0.003268    264.43625     350.87189
  348.0      0.002874    264.89313     364.53763
  380.0      0.002632    265.35101     380.69067
  359.0      0.002786    265.80984     405.18817
  352.0      0.002841    266.26974     432.34665
  432.0      0.002315    266.73050     464.24939
  422.0      0.002370    267.19211     499.36462
  488.0      0.002049    267.65463     539.28503
  496.0      0.002016    268.11810     584.43787
  550.0      0.001818    268.58258     625.75946
  530.0      0.001887    269.04788     653.19116
  642.0      0.001558    269.51416     673.71185
  638.0      0.001567    269.98120     699.99158
  709.0      0.001410    270.44925     734.35223
  733.0      0.001364    270.91809     773.28687
  771.0      0.001297    271.38785     806.70428
  829.0      0.001206    271.85849     822.41498
  798.0      0.001253    272.32986     812.26678
  852.0      0.001174    272.80219     768.41907
  790.0      0.001266    273.27533     698.27454
  755.0      0.001325    273.74936     625.14545
  751.0      0.001332    274.22415     565.37457
  739.0      0.001353    274.69977     522.55493
  634.0      0.001577    275.17627     494.23511
  672.0      0.001488    275.65335     476.52304
  705.0      0.001418    276.13147     465.87164
  668.0      0.001497    276.61026     459.64374
  674.0      0.001484    277.08994     456.12219
  672.0      0.001488    277.57034     454.28180
  698.0      0.001433    278.05154     453.53690
  740.0      0.001351    278.53339     453.56693
  771.0      0.001297    279.01608     454.25229
  772.0      0.001295    279.49945     455.73798
  802.0      0.001247    279.98358     458.67712
  863.0      0.001159    280.46844     464.70654
  741.0      0.001350    280.95407     477.11285
  891.0      0.001122    281.44040     501.39139
  806.0      0.001241    281.92749     545.10107
  908.0      0.001101    282.41519     616.32404
  921.0      0.001086    282.90366     720.52179
  998.0      0.001002    283.39282     856.81433
  1020.0     0.000980    283.88251     1016.15411
  1118.0     0.000894    284.37302     1183.84888
  1137.0     0.000880    284.86423     1345.73291
  1213.0     0.000824    285.35596     1493.94604
  1304.0     0.000767    285.84833     1630.31445
  1412.0     0.000708    286.34149     1760.59888
  1551.0     0.000645    286.83521     1883.05981
  1622.0     0.000617    287.32953     2001.29590
  1843.0     0.000543    287.82437     2129.81543
  2064.0     0.000484    288.31992     2274.39160
  2280.0     0.000439    288.81616     2438.68701
  2612.0     0.000383    289.31287     2630.04907
  2867.0     0.0003488   289.81027     2855.68115
  3313.0     0.0003018   290.30817     3101.78149
  3432.0     0.0002914   290.80661     3314.31104
  3583.0     0.0002791   291.30573     3411.58325
  3487.0     0.0002868   291.80515     3325.97388
  3248.0     0.0003079   292.30533     3039.66333
  2922.0     0.0003422   292.80609     2586.47266
  2168.0     0.000461    293.30731     2048.41699
  1527.0     0.000655    293.80902     1527.88062
  1447.0     0.000691    294.31140     1102.61987
  902.0      0.001109    294.81403     802.84778
  902.0      0.001109    295.31732     617.27069
  402.0      0.002488    295.82114     514.00922
  402.0      0.002488    296.32523     460.30502
  308.0      0.003247    296.83005     432.50372
  265.0      0.00377     297.33514     417.05948
  335.0      0.002985    297.84082     407.44708
  301.0      0.003322    298.34692     400.85437
  298.0      0.003356    298.85345     396.08057
  329.0      0.003040    299.36044     392.53699
  234.0      0.00427     299.86780     389.87708
  332.0      0.003012    300.37555     387.88904
  310.0      0.003226    300.88382     386.46231
  231.0      0.00433     301.39243     385.55121
  395.0      0.002532    301.90143     385.12869
  254.0      0.00394     302.41086     385.14233
  305.0      0.003279    302.92065     385.48914
  363.0      0.002755    303.43088     386.00455
  210.0      0.00476     303.94135     386.46725
  359.0      0.002786    304.45209     386.62415
  317.0      0.003155    304.96335     386.23285
  287.0      0.003484    305.47491     385.10400
  339.0      0.002950    305.98679     383.12552
  341.0      0.002933    306.49899     380.27167
  344.0      0.002907    307.01147     376.61569
  306.0      0.003268    307.52429     372.34909
  318.0      0.003145    308.03748     367.77106
  274.0      0.00365     308.55087     363.22922
  304.0      0.003289    309.06448     359.02484
  275.0      0.00364     309.57843     355.34064
  326.0      0.003067    310.09265     352.22446
  270.0      0.00370     310.60715     349.62726
  298.0      0.003356    311.12189     347.46014
  310.0      0.003226    311.63681     345.63586
  325.0      0.003077    312.15201     344.08640
  286.0      0.003497    312.66739     342.76334
  284.0      0.00352     313.18295     341.63135
  293.0      0.003413    313.69876     340.66406
  333.0      0.003003    314.21478     339.83945
  283.0      0.00353     314.73105     339.13882
  345.0      0.002899    315.24744     338.54602
  272.0      0.00368     315.76401     338.04770
  242.0      0.00413     316.28079     337.63174
  260.0      0.00385     316.79773     337.28836
  320.0      0.003125    317.31470     337.00885
  253.0      0.00395     317.83188     336.78616
  354.0      0.002825    318.34912     336.61392
  258.0      0.00388     318.86658     336.48679
  315.0      0.003175    319.38412     336.40030
  297.0      0.003367    319.90182     336.35062
  330.0      0.003030    320.41962     336.33426
  320.0      0.003125    320.93741     336.34805
  298.0      0.003356    321.45538     336.38953
  325.0      0.003077    321.97330     336.45636
  276.0      0.00362     322.49133     336.54666
  320.0      0.003125    323.00943     336.65839
  381.0      0.002625    323.52765     336.79004
  297.0      0.003367    324.04590     336.94025
  353.0      0.002833    324.56415     337.10751
  287.0      0.003484    325.08243     337.29068
  314.0      0.003185    325.60074     337.48868
  396.0      0.002525    326.11890     337.70050
  357.0      0.002801    326.63718     337.92532
  348.0      0.002874    327.15546     338.16241
  300.0      0.003333    327.67368     338.41095
  335.0      0.002985    328.19199     338.67010
  335.0      0.002985    328.71014     338.93942
  262.0      0.00382     329.22836     339.21826
  363.0      0.002755    329.74646     339.50610
  299.0      0.003344    330.26450     339.80225
  347.0      0.002882    330.78238     340.10645
  300.0      0.003333    331.30042     340.41840
  331.0      0.003021    331.81815     340.73740
  318.0      0.003145    332.33591     341.06320
  318.0      0.003145    332.85364     341.39548
  363.0      0.002755    333.37112     341.73398
  301.0      0.003322    333.88858     342.07813
  316.0      0.003165    334.40585     342.42801
  306.0      0.003268    334.92288     385.86374
  270.0      0.00370     335.43988     387.48972
  339.0      0.002950    335.95679     389.17715
  274.0      0.00365     336.47351     390.92923
  272.0      0.00368     336.99005     392.74939
  305.0      0.003279    337.50650     394.64157
  281.0      0.00356     338.02267     396.60977
  374.0      0.002674    338.53867     398.65845
  257.0      0.00389     339.05438     400.79239
  369.0      0.002710    339.56998     403.01730
  388.0      0.002577    340.08533     405.33835
  357.0      0.002801    340.60046     407.76224
  282.0      0.00355     341.11545     410.29584
  371.0      0.002695    341.63010     412.94632
  353.0      0.002833    342.14456     415.72220
  305.0      0.003279    342.65881     418.63220
  342.0      0.002924    343.17264     421.68619
  388.0      0.002577    343.68631     424.89523
  303.0      0.003300    344.19971     428.27084
  321.0      0.003115    344.71280     431.82635
  405.0      0.002469    345.22562     435.57605
  317.0      0.003155    345.73816     439.53595
  355.0      0.002817    346.25027     443.72363
  282.0      0.00355     346.76218     448.15878
  448.0      0.002232    347.27368     452.86331
  386.0      0.002591    347.78491     457.86118
  399.0      0.002506    348.29575     463.18027
  366.0      0.002732    348.80630     468.85144
  428.0      0.002336    349.31641     474.91263
  335.0      0.002985    349.82620     481.41544
  451.0      0.002217    350.33569     488.44568
  384.0      0.002604    350.84476     496.17178
  484.0      0.002066    351.35336     504.94571
  423.0      0.002364    351.86154     515.47406
  441.0      0.002268    352.36948     529.05212
  425.0      0.002353    352.87683     547.78986
  558.0      0.001792    353.38388     574.69324
  527.0      0.001898    353.89047     613.43341
  644.0      0.001553    354.39661     667.66992
  575.0      0.001739    354.90234     739.90601
  683.0      0.001464    355.40753     830.07135
  739.0      0.001353    355.91238     934.39160
  795.0      0.001258    356.41666     1045.46777
  954.0      0.001048    356.92056     1154.29956
  965.0      0.001036    357.42389     1253.87390
  1128.0     0.000887    357.92676     1342.43652
  1330.0     0.000752    358.42917     1424.23669
  1410.0     0.000709    358.93103     1507.23474
  1544.0     0.000648    359.43246     1599.69299
  1797.0     0.000556    359.93332     1708.24329
  2038.0     0.000491    360.43350     1838.08936
  2328.0     0.000430    360.93329     1993.43909
  2779.0     0.000360    361.43262     2175.83325
  3037.0     0.0003293   361.93124     2380.31738
  3441.0     0.0002906   362.42938     2592.39185
  3655.0     0.0002736   362.92697     2789.71021
  3890.0     0.0002571   363.42392     2950.31592
  4085.0     0.0002448   363.92044     3064.64795
  4096.0     0.0002441   364.41614     3144.49902
  4079.0     0.0002452   364.91135     3222.16260
  4155.0     0.0002407   365.40604     3338.54150
  3999.0     0.0002501   365.90002     3527.10986
  4075.0     0.0002454   366.39343     3804.65479
  4264.0     0.0002345   366.88626     4172.93896
  4470.0     0.0002237   367.37833     4621.87646
  4685.0     0.0002134   367.86984     5124.31836
  4915.0     0.0002035   368.36060     5630.43701
  5477.0     0.0001826   368.85077     6080.01660
  5997.0     0.0001668   369.34042     6431.89697
  6571.0     0.0001522   369.82922     6677.78320
  6701.0     0.0001492   370.31744     6819.02686
  6829.0     0.0001464   370.80499     6836.30273
  7083.0     0.0001412   371.29187     6689.27100
  6701.0     0.0001492   371.77792     6345.92920
  6368.0     0.0001570   372.26337     5817.68555
  5727.0     0.0001746   372.74808     5167.95605
  4675.0     0.0002139   373.23209     4482.54297
  3960.0     0.0002525   373.71524     3833.03931
  3234.0     0.0003092   374.19781     3256.84302
  2610.0     0.000383    374.67963     2768.47192
  2610.0     0.000383    375.16064     2365.85010
  2009.0     0.000498    375.64099     2039.67395
  2009.0     0.000498    376.12054     1778.18140
  1656.0     0.000604    376.59924     1569.55383
  1523.0     0.000657    377.07727     1403.05090
  1474.0     0.000678    377.55447     1269.49597
  1414.0     0.000707    378.03088     1161.40149
  1420.0     0.000704    378.50659     1072.88110
  1265.0     0.000791    378.98138     999.43964
  1354.0     0.000739    379.45538     937.71393
  1298.0     0.000770    379.92865     885.21417
  1304.0     0.000767    380.40094     840.09644
  1245.0     0.000803    380.87250     800.98505
  1304.0     0.000767    381.34323     766.84045
  1244.0     0.000804    381.81317     736.87585
  1189.0     0.000841    382.28220     710.51611
  1134.0     0.000882    382.75037     687.40387
  1180.0     0.000847    383.21768     667.51923
  1109.0     0.000902    383.68414     651.01807
  1178.0     0.000849    384.14975     638.71838
  1246.0     0.000803    384.61432     631.89008
  1149.0     0.000870    385.07819     632.21283
  1129.0     0.000886    385.54111     641.44336
  1199.0     0.000834    386.00311     660.83295
  1109.0     0.000902    386.46426     690.40417
  1140.0     0.000877    386.92444     728.37299
  1127.0     0.000887    387.38373     771.12567
  1014.0     0.000986    387.84210     814.05365
  1145.0     0.000873    388.29950     853.10217
  1050.0     0.000952    388.75598     886.32019
  1124.0     0.000890    389.21146     914.51917
  1053.0     0.000950    389.66611     940.68073
  1083.0     0.000923    390.11978     968.60864
  1127.0     0.000887    390.57248     1001.71857
  1048.0     0.000954    391.02414     1042.36365
  1132.0     0.000883    391.47488     1091.26746
  1002.0     0.000998    391.92453     1146.42249
  1063.0     0.000941    392.37326     1201.60266
  1085.0     0.000922    392.82108     1245.71948
  1033.0     0.000968    393.26785     1264.54358
  1015.0     0.000985    393.71359     1245.17993
  1012.0     0.000988    394.15836     1181.68970
  939.0      0.001065    394.60211     1078.85632
  924.0      0.001082    395.04483     951.59528
  854.0      0.001171    395.48654     819.92688
  865.0      0.001156    395.92709     702.09473
  866.0      0.001155    396.36670     609.34082
  840.0      0.001190    396.80533     544.45398
  741.0      0.001350    397.24286     503.77237
  826.0      0.001211    397.67923     488.18161
  720.0      0.001389    398.11472     476.31647
  800.0      0.001250    398.54907     470.50256
  771.0      0.001297    398.98227     467.64606
  699.0      0.001431    399.41437     466.10385
  705.0      0.001418    399.84546     465.11804
  717.0      0.001395    400.27545     464.38092
  673.0      0.001486    400.70441     463.78098
  644.0      0.001553    401.13220     463.28149
  624.0      0.001603    401.55890     462.87115
  640.0      0.001563    401.98453     462.54565
  612.0      0.001634    402.40894     462.30319
  649.0      0.001541    402.83218     462.14291
  612.0      0.001634    403.25443     462.06445
  658.0      0.001520    403.67551     462.06793
  620.0      0.001613    404.09540     462.15372
  608.0      0.001645    404.51419     462.32300
  566.0      0.001767    404.93192     462.57697
  586.0      0.001706    405.34839     426.69928
  571.0      0.001751    405.76376     428.02527
  579.0      0.001727    406.17792     429.41025
  542.0      0.001845    406.59091     430.85965
  554.0      0.001805    407.00259     432.37967
  513.0      0.001949    407.41336     433.97714
  533.0      0.001876    407.82272     435.65958
  505.0      0.001980    408.23105     437.43570
  570.0      0.001754    408.63815     439.31534
  542.0      0.001845    409.04404     441.30951
  544.0      0.001838    409.44870     443.43112
  524.0      0.001908    409.85208     445.69458
  550.0      0.001818    410.25436     448.11685
  509.0      0.001965    410.65533     450.71729
  501.0      0.001996    411.05515     453.51895
  459.0      0.002179    411.45380     456.54822
  617.0      0.001621    411.85107     459.83652
  501.0      0.001996    412.24722     463.42078
  568.0      0.001761    412.64206     467.34494
  530.0      0.001887    413.03564     471.66055
  528.0      0.001894    413.42801     476.42889
  460.0      0.002174    413.81912     481.72247
  551.0      0.001815    414.20898     487.62650
  539.0      0.001855    414.59750     494.24121
  467.0      0.002141    414.98492     501.68423
  540.0      0.001852    415.37097     510.09225
  476.0      0.002101    415.75577     519.62354
  589.0      0.001698    416.13925     530.45990
  512.0      0.001953    416.52133     542.81140
  613.0      0.001631    416.90231     556.92462
  574.0      0.001742    417.28192     573.10632
  673.0      0.001486    417.66028     591.77747
  629.0      0.001590    418.03729     613.58063
  719.0      0.001391    418.41293     639.56451
  743.0      0.001346    418.78745     671.44824
  828.0      0.001208    419.16049     711.90607
  853.0      0.001172    419.53220     764.72949
  921.0      0.001086    419.90265     834.64459
  989.0      0.001011    420.27176     926.60382
  1089.0     0.000918    420.63959     1044.57642
  1213.0     0.000824    421.00601     1190.13586
  1255.0     0.000797    421.37115     1361.36658
  1440.0     0.000694    421.73492     1552.60742
  1559.0     0.000641    422.09735     1755.41052
  1828.0     0.000547    422.45837     1961.13477
  1977.0     0.000506    422.81805     2165.09424
  2092.0     0.000478    423.17651     2369.13867
  2385.0     0.000419    423.53354     2577.62134
  2569.0     0.000389    423.88919     2788.80176
  2906.0     0.0003441   424.24341     2992.10156
  3192.0     0.0003133   424.59641     3176.53979
  3527.0     0.0002835   424.94791     3337.73242
  3815.0     0.0002621   425.29813     3468.72046
  3999.0     0.0002501   425.64676     3546.76392
  3997.0     0.0002502   425.99420     3535.73071
  3910.0     0.0002558   426.34015     3404.06543
  3563.0     0.0002807   426.68491     3146.26709
  2889.0     0.0003461   427.02808     2789.96997
  2318.0     0.000431    427.36990     2382.65576
  2012.0     0.000497    427.71027     1973.60742
  1453.0     0.000688    428.04932     1602.57983
  1453.0     0.000688    428.38690     1294.43091
  905.0      0.001105    428.72305     1057.93018
  905.0      0.001105    429.05783     888.46881
  569.0      0.001757    429.39124     773.41516
  559.0      0.001789    429.72321     697.76581
  549.0      0.001821    430.05374     648.16095
  546.0      0.001832    430.38284     614.65924
  459.0      0.002179    430.71045     590.77539
  457.0      0.002188    431.03668     572.67114
  502.0      0.001992    431.36145     558.21375
  405.0      0.002469    431.68484     546.23846
  517.0      0.001934    432.00681     536.08862
  386.0      0.002591    432.32727     527.36255
  475.0      0.002105    432.64636     519.79047
  446.0      0.002242    432.96399     513.17529
  429.0      0.002331    433.28012     507.36456
  417.0      0.002398    433.59476     502.23700
  442.0      0.002262    433.90802     497.69370
  444.0      0.002252    434.21976     493.65326
  469.0      0.002132    434.53012     490.04810
  414.0      0.002415    434.83896     486.82162
  466.0      0.002146    435.14636     483.92599
  468.0      0.002137    435.45230     481.32077
  417.0      0.002398    435.75681     478.97131
  409.0      0.002445    436.05978     476.84851
  433.0      0.002309    436.36118     474.92667
  476.0      0.002101    436.66125     473.18387
  420.0      0.002381    436.95978     471.60138
  444.0      0.002252    437.25690     470.16229
  518.0      0.001931    437.55243     468.85223
  400.0      0.002500    437.84656     467.65842
  526.0      0.001901    438.13919     466.56979
  442.0      0.002262    438.43033     465.57645
  460.0      0.002174    438.71991     464.66953
  498.0      0.002008    439.00806     463.84125
  417.0      0.002398    439.29474     463.08478
  471.0      0.002123    439.57983     462.39380
  427.0      0.002342    439.86353     461.76285
  518.0      0.001931    440.14560     461.18704
  396.0      0.002525    440.42636     460.66168
  520.0      0.001923    440.70547     460.18289
  367.0      0.002725    440.98309     459.74707
  549.0      0.001821    441.25919     459.35080
  420.0      0.002381    441.53372     458.99103
  462.0      0.002165    441.80688     458.66531
  454.0      0.002203    442.07855     458.37085
  423.0      0.002364    442.34857     458.37607
  441.0      0.002268    442.61716     458.15067
  468.0      0.002137    442.88425     457.95135
  420.0      0.002381    443.14975     457.77670
  423.0      0.002364    443.41370     457.62494
  447.0      0.002237    443.67618     457.49500
  458.0      0.002183    443.93719     457.38562
  403.0      0.002481    444.19656     457.29568
  481.0      0.002079    444.45456     457.22427
  380.0      0.002632    444.71088     457.17059
  576.0      0.001736    444.96582     457.13394
  450.0      0.002222    445.21918     457.11371
  471.0      0.002123    445.47092     457.10928
  461.0      0.002169    445.72116     457.12045
  486.0      0.002058    445.96988     457.14694
  502.0      0.001992    446.21710     457.18845
  477.0      0.002096    446.46280     457.24548
  455.0      0.002198    446.70688     457.31781
  431.0      0.002320    446.94952     457.40637
  465.0      0.002151    447.19049     457.51218
  498.0      0.002008    447.43005     457.63690
  483.0      0.002070    447.66806     457.78378
  500.0      0.002000    447.90442     457.95850
  443.0      0.002257    448.13943     458.17050
  550.0      0.001818    448.37271     458.43512
  449.0      0.002227    448.60455     458.77585
  491.0      0.002037    448.83484     459.22739
  469.0      0.002132    449.06360     459.83636
  514.0      0.001946    449.29077     460.66302
  430.0      0.002326    449.51633     461.77884
  532.0      0.001880    449.74045     463.26248
  461.0      0.002169    449.96298     465.19128
  543.0      0.001842    450.18402     467.62900
  486.0      0.002058    450.40353     470.60675
  542.0      0.001845    450.62134     474.10580
  435.0      0.002299    450.83777     478.05630
  485.0      0.002062    451.05252     482.36273
  481.0      0.002079    451.26584     486.91946
  540.0      0.001852    451.47757     491.58142
  477.0      0.002096    451.68762     496.14825
  468.0      0.002137    451.89633     500.45016
  543.0      0.001842    452.10339     504.48651
  485.0      0.002062    452.30893     508.41055
  518.0      0.001931    452.51294     512.33545
  495.0      0.002020    452.71533     516.18536
  500.0      0.002000    452.91623     519.67413
  528.0      0.001894    453.11548     522.33380
  467.0      0.002141    453.31335     523.61139
  534.0      0.001873    453.50952     523.03278
  524.0      0.001908    453.70419     520.31915
  473.0      0.002114    453.89731     514.42450
  503.0      0.001988    454.08896     507.93250
  473.0      0.002114    454.27896     500.53128
  506.0      0.001976    454.46747     493.06760
  530.0      0.001887    454.65439     486.22131
  455.0      0.002198    454.83978     480.41846
  543.0      0.001842    455.02359     475.84103
  474.0      0.002110    455.20584     472.47696
  526.0      0.001901    455.38657     470.18274
  544.0      0.001838    455.56592     468.74924
  506.0      0.001976    455.74344     467.95673
  450.0      0.002222    455.91956     467.61121
  523.0      0.001912    456.09418     467.56082
  497.0      0.002012    456.26712     467.69836
  524.0      0.001908    456.43857     467.95303
  500.0      0.002000    456.60855     468.28110
  536.0      0.001866    456.77695     468.65613
  515.0      0.001942    456.94379     469.06201
  583.0      0.001715    457.10916     469.48798
  510.0      0.001961    457.27283     469.92603
  590.0      0.001695    457.43503     470.36972
  502.0      0.001992    457.59564     470.81274
  525.0      0.001905    457.75488     471.24896
  529.0      0.001890    457.91248     471.67172
  566.0      0.001767    458.06842     472.07449
  520.0      0.001923    458.22311     472.44980
  543.0      0.001842    458.37604     472.78986
  550.0      0.001818    458.52756     473.08728
  571.0      0.001751    458.67743     473.33459
  516.0      0.001938    458.82587     473.52548
  552.0      0.001812    458.97266     473.65512
  558.0      0.001792    459.11801     473.72113
  531.0      0.001883    459.26184     473.72470
  542.0      0.001845    459.40399     473.67209
  540.0      0.001852    459.54492     473.57806
  549.0      0.001821    459.68399     473.46887
  588.0      0.001701    459.82178     473.38889
  580.0      0.001724    459.95782     529.92731
  554.0      0.001805    460.09253     531.79578
  588.0      0.001701    460.22574     534.04852
  604.0      0.001656    460.35727     536.82520
  580.0      0.001724    460.48740     540.26105
  594.0      0.001684    460.61594     544.45624
  581.0      0.001721    460.74301     549.44183
  623.0      0.001605    460.86859     555.15399
  588.0      0.001701    460.99265     561.43243
  610.0      0.001639    461.11508     568.05298
  572.0      0.001748    461.23615     574.79364
  634.0      0.001577    461.35553     581.51135
  541.0      0.001848    461.47366     588.19623
  636.0      0.001572    461.59021     594.96918
  620.0      0.001613    461.70508     602.01440
  631.0      0.001585    461.81851     609.46509
  637.0      0.001570    461.93066     617.27960
  629.0      0.001590    462.04099     625.15747
  632.0      0.001582    462.15009     632.53296
  619.0      0.001616    462.25748     638.66956
  699.0      0.001431    462.36353     642.84967
  718.0      0.001393    462.46805     644.60986
  646.0      0.001548    462.57104     643.94110
  731.0      0.001368    462.67270     641.36176
  681.0      0.001468    462.77267     637.81909
  692.0      0.001445    462.87122     634.44849
  691.0      0.001447    462.96829     632.28705
  685.0      0.001460    463.06393     632.05292
  617.0      0.001621    463.15805     634.06256
  696.0      0.001437    463.25073     638.28351
  658.0      0.001520    463.34195     644.47052
  662.0      0.001511    463.43164     652.31061
  663.0      0.001508    463.51981     661.53192
  737.0      0.001357    463.60663     671.95551
  674.0      0.001484    463.69199     683.50415
  721.0      0.001387    463.77579     696.18658
  748.0      0.001337    463.85818     710.07611
  685.0      0.001460    463.93909     725.29346
  736.0      0.001359    464.01855     741.99713
  759.0      0.001318    464.09662     760.38080
  723.0      0.001383    464.17325     780.67584
  749.0      0.001335    464.24829     803.15753
  740.0      0.001351    464.32202     892.80353
  792.0      0.001263    464.39417     924.38892
  776.0      0.001289    464.46497     959.72052
  816.0      0.001225    464.53433     999.47321
  799.0      0.001252    464.60226     1044.51941
  915.0      0.001093    464.66873     1096.01038
  969.0      0.001032    464.73380     1155.49048
  1047.0     0.000955    464.79730     1225.04968
  1135.0     0.000881    464.85950     1307.51697
  1346.0     0.000743    464.92035     1406.70056
  1438.0     0.000695    464.97964     1527.68604
  1633.0     0.000612    465.03748     1677.21582
  1802.0     0.000555    465.09409     1864.19250
  2042.0     0.000490    465.14914     2100.33521
  2397.0     0.000417    465.20288     2400.94238
  2823.0     0.000354    465.25510     2789.51172
  3162.0     0.0003163   465.30594     3281.80273
  3815.0     0.0002621   465.35541     3907.27930
  4356.0     0.0002296   465.40350     4688.97607
  5009.0     0.0001996   465.45010     5640.25098
  5868.0     0.0001704   465.49536     6759.99609
  6900.0     0.0001449   465.53931     8037.46826
  8739.0     0.0001144   465.58182     9465.90820
  10332.0    0.0000968   465.62292     11048.25000
  12060.0    0.0000829   465.66263     12782.28809
  14190.0    0.0000705   465.70096     14635.54883
  15759.0    0.0000635   465.73785     16526.82813
  17099.0    0.0000585   465.77344     18326.51563
  19989.0    0.0000500   465.80765     19890.06250
  21631.0    0.0000462   465.84052     21123.29102
  23174.0    0.0000432   465.87207     22028.95898
  23174.0    0.0000432   465.90219     22680.64453
  23174.0    0.0000432   465.93094     23159.39063
  23175.0    0.0000431   465.95822     23511.44336
  23175.0    0.0000431   465.98438     23707.64648
  23175.0    0.0000431   466.00906     23614.88867
  21631.0    0.0000462   466.03241     23058.69141
  21079.0    0.0000474   466.05450     21966.19141
  19906.0    0.0000502   466.07510     20402.96875
  18396.0    0.0000544   466.09448     18462.79883
  16027.0    0.0000624   466.11243     16208.43652
  13308.0    0.0000751   466.12918     13715.84863
  11151.0    0.0000897   466.14444     11151.48047
  8726.0     0.0001146   466.15848     8758.87500
  6183.0     0.0001617   466.17114     6734.80273
  4664.0     0.0002144   466.18259     5159.24561
  3408.0     0.0002934   466.19266     4016.84399
  2638.0     0.000379    466.20139     3241.47876
  2618.0     0.000382    466.20883     2748.76758
  2016.0     0.000496    466.21503     2452.86938
  2016.0     0.000496    466.21982     2276.40430
  1780.0     0.000562    466.22339     2161.51587
  1719.0     0.000582    466.22559     2074.65405
  1813.0     0.000552    466.22662     1995.23120
  1755.0     0.000570    466.22629     1904.85901
  1724.0     0.000580    466.22464     1789.04016
  1701.0     0.000588    466.22183     1645.23303
  1534.0     0.000652    466.21765     1486.72107
  1399.0     0.000715    466.21219     1332.68933
  1321.0     0.000757    466.20551     1196.96875
  1216.0     0.000822    466.19760     1085.65295
  1126.0     0.000888    466.18826     998.95831
  972.0      0.001029    466.17776     933.51544
  922.0      0.001085    466.16611     884.44025
  893.0      0.001120    466.15308     846.93304
  794.0      0.001259    466.13885     817.16675
  810.0      0.001235    466.12335     792.50494
  765.0      0.001307    466.10666     771.30945
  774.0      0.001292    466.08881     752.62012
  728.0      0.001374    466.06955     735.87384
  655.0      0.001527    466.04910     720.72083
  736.0      0.001359    466.02750     706.92120
  675.0      0.001481    466.00464     694.29498
  725.0      0.001379    465.98062     682.69824
  662.0      0.001511    465.95532     672.01178
  687.0      0.001456    465.92871     662.13513
  647.0      0.001546    465.90109     652.98242
  668.0      0.001497    465.87213     644.47986
  669.0      0.001495    465.84204     636.56335
  677.0      0.001477    465.81082     629.17706
  629.0      0.001590    465.77832     622.27203
  632.0      0.001582    465.74463     615.80505
  713.0      0.001403    465.70972     609.73810
  630.0      0.001587    465.67368     604.03711
  680.0      0.001471    465.63651     598.67194
  690.0      0.001449    465.59824     593.61554
  588.0      0.001701    465.55869     588.84357
  625.0      0.001600    465.51797     584.33398
  587.0      0.001704    465.47610     580.06732
  596.0      0.001678    465.43311     576.02551
  649.0      0.001541    465.38892     572.19250
  597.0      0.001675    465.34357     568.55328
  591.0      0.001692    465.29718     565.09467
  565.0      0.001770    465.24951     561.80414
  675.0      0.001481    465.20087     558.67078
  496.0      0.002016    465.15100     555.68396
  658.0      0.001520    465.10004     552.83453
  662.0      0.001511    465.04788     550.11346
  561.0      0.001783    464.99460     547.51294
  572.0      0.001748    464.94046     545.02570
  549.0      0.001821    464.88498     542.64465
  649.0      0.001541    464.82843     540.36353
  649.0      0.001541    464.77072     538.17664
  602.0      0.001661    464.71204     536.07861
  637.0      0.001570    464.65225     534.06415
  576.0      0.001736    464.59131     532.12872
  610.0      0.001639    464.52924     530.26788
  514.0      0.001946    464.46619     528.47760
  560.0      0.001786    464.40207     526.75427
  579.0      0.001727    464.33685     525.37494
  586.0      0.001706    464.27057     523.77917
  600.0      0.001667    464.20319     522.24042
  571.0      0.001751    464.13480     520.75580
  588.0      0.001701    464.06531     519.32251
  596.0      0.001678    463.99484     517.93793
  579.0      0.001727    463.92331     516.59979
  544.0      0.001838    463.85062     536.07495
  579.0      0.001727    463.77710     535.51349
  567.0      0.001764    463.70236     535.37872
  603.0      0.001658    463.62668     534.97723
  615.0      0.001626    463.54993     534.65265
  522.0      0.001916    463.47223     534.40613
  655.0      0.001527    463.39343     534.23932
  517.0      0.001934    463.31366     534.15424
  584.0      0.001712    463.23297     534.15314
  626.0      0.001597    463.15121     534.23895
  588.0      0.001701    463.06842     534.41504
  547.0      0.001828    462.98465     534.68506
  560.0      0.001786    462.89990     535.05353
  561.0      0.001783    462.81421     535.52527
  528.0      0.001894    462.72748     536.10614
  590.0      0.001695    462.63980     536.80273
  559.0      0.001789    462.55112     537.62238
  570.0      0.001754    462.46152     538.57349
  584.0      0.001712    462.37094     539.66553
  526.0      0.001901    462.27945     541.25537
  571.0      0.001751    462.18692     542.67493
  580.0      0.001724    462.09351     544.27325
  570.0      0.001754    461.99908     546.06598
  623.0      0.001605    461.90375     548.07141
  560.0      0.001786    461.80750     550.31055
  562.0      0.001779    461.71033     552.80688
  541.0      0.001848    461.61230     555.58801
  575.0      0.001739    461.51324     558.68536
  479.0      0.002088    461.41333     562.13586
  640.0      0.001563    461.31241     565.98254
  553.0      0.001808    461.21069     570.27618
  619.0      0.001616    461.10803     575.07874
  607.0      0.001647    461.00446     580.46643
  610.0      0.001639    460.90005     586.53790
  655.0      0.001527    460.79468     593.42468
  631.0      0.001585    460.68845     601.30975
  630.0      0.001587    460.58130     610.45715
  657.0      0.001522    460.47339     621.25201
  695.0      0.001439    460.36453     634.25873
  661.0      0.001513    460.25479     721.57544
  770.0      0.001299    460.14420     747.98694
  766.0      0.001305    460.03278     781.01599
  849.0      0.001178    459.92047     822.91925
  934.0      0.001071    459.80737     876.56598
  1004.0     0.000996    459.69333     945.48175
  1102.0     0.000907    459.57849     1033.87415
  1349.0     0.000741    459.46283     1146.68091
  1500.0     0.000667    459.34634     1289.72827
  1721.0     0.000581    459.22910     1470.14795
  1964.0     0.000509    459.11099     1697.19604
  2316.0     0.000432    458.99200     1983.48633
  2629.0     0.000380    458.87231     2346.37378
  3095.0     0.0003231   458.75171     2809.03955
  3561.0     0.0002808   458.63031     3400.85498
  4048.0     0.0002470   458.50821     4156.27393
  4642.0     0.0002154   458.38528     5091.59863
  5406.0     0.0001850   458.26154     6272.14502
  6623.0     0.0001510   458.13702     7682.98877
  8535.0     0.0001172   458.01166     9297.06836
  10241.0    0.0000976   457.88568     11069.06836
  11972.0    0.0000835   457.75885     12937.77441
  13741.0    0.0000728   457.63120     14779.54004
  15455.0    0.0000647   457.50293     16390.97656
  17139.0    0.0000583   457.37381     17581.43555
  19614.0    0.0000510   457.24384     18235.77344
  18654.0    0.0000536   457.11316     18227.60938
  16990.0    0.0000589   456.98187     17403.91016
  15741.0    0.0000635   456.84982     15711.84473
  13044.0    0.0000767   456.71692     13338.77344
  10349.0    0.0000966   456.58344     10682.67090
  6664.0     0.0001501   456.44916     8147.62207
  5175.0     0.0001932   456.31415     6003.06494
  3784.0     0.0002643   456.17844     4358.67529
  2786.0     0.000359    456.04199     3195.55908
  2620.0     0.000382    455.90491     2421.23096
  2017.0     0.000496    455.76709     1923.74902
  2017.0     0.000496    455.62857     1606.55054
  1456.0     0.000687    455.48935     1400.68469
  1456.0     0.000687    455.34949     1262.36792
  907.0      0.001103    455.20895     1165.44421
  907.0      0.001103    455.06766     1094.41125
  757.0      0.001321    454.92575     1039.68640
  732.0      0.001366    454.78320     994.90564
  661.0      0.001513    454.63992     955.61102
  665.0      0.001504    454.49606     918.73077
  631.0      0.001585    454.35150     882.43756
  632.0      0.001582    454.20624     846.08881
  649.0      0.001541    454.06042     810.00360
  625.0      0.001600    453.91388     775.03149
  677.0      0.001477    453.76685     742.10309
  650.0      0.001538    453.61905     711.95142
  558.0      0.001792    453.47067     685.02112
  685.0      0.001460    453.32169     661.48444
  589.0      0.001698    453.17206     641.29535
  577.0      0.001733    453.02182     624.24780
  645.0      0.001550    452.87103     611.18646
  633.0      0.001580    452.71957     599.45557
  529.0      0.001890    452.56757     589.82477
  594.0      0.001684    452.41495     581.94482
  552.0      0.001812    452.26172     575.50787
  558.0      0.001792    452.10785     570.25494
  497.0      0.002012    451.95358     565.97546
  559.0      0.001789    451.79858     562.49921
  516.0      0.001938    451.64310     559.68896
  595.0      0.001681    451.48694     557.43140
  569.0      0.001757    451.33032     555.63251
  522.0      0.001916    451.17307     554.21515
  561.0      0.001783    451.01535     553.11743
  520.0      0.001923    450.85696     552.29175
  546.0      0.001832    450.69818     551.69745
  571.0      0.001751    450.53885     551.29089
  493.0      0.002028    450.37885     551.01288
  466.0      0.002146    450.21848     550.77783
  560.0      0.001786    450.05743     550.46851
  490.0      0.002041    449.89603     549.94147
  507.0      0.001972    449.73392     549.04291
  523.0      0.001912    449.57144     547.63422
  510.0      0.001961    449.40842     545.61969
  508.0      0.001969    449.24490     542.96649
  575.0      0.001739    449.08090     539.70978
  492.0      0.002033    448.91629     535.94189
  502.0      0.001992    448.75122     531.79260
  552.0      0.001812    448.58575     527.40491
  474.0      0.002110    448.41980     522.91656
  491.0      0.002037    448.25336     518.44720
  554.0      0.001805    448.08643     514.09155
  438.0      0.002283    447.91913     509.91818
  504.0      0.001984    447.75122     505.97269
  496.0      0.002016    447.58289     502.28110
  514.0      0.001946    447.41409     498.85486
  579.0      0.001727    447.24490     495.69458
  458.0      0.002183    447.07529     492.79294
  490.0      0.002041    446.90524     490.13782
  454.0      0.002203    446.73459     487.71332
  452.0      0.002212    446.56357     485.50189
  498.0      0.002008    446.39230     483.48468
  445.0      0.002247    446.22049     481.64331
  506.0      0.001976    446.04822     479.95920
  526.0      0.001901    445.87561     478.41504
  499.0      0.002004    445.70248     476.99466
  555.0      0.001802    445.52908     475.68332
  548.0      0.001825    445.35516     493.22818
  468.0      0.002137    445.18097     492.31055
  502.0      0.001992    445.00629     491.47021
  525.0      0.001905    444.83127     490.69836
  465.0      0.002151    444.65582     489.98755
  529.0      0.001890    444.48001     489.33130
  504.0      0.001984    444.30392     488.72424
  472.0      0.002119    444.12729     488.16177
  501.0      0.001996    443.95041     487.64001
  524.0      0.001908    443.77310     487.15573
  476.0      0.002101    443.59549     486.70621
  446.0      0.002242    443.41745     486.28909
  497.0      0.002012    443.23914     485.90225
  418.0      0.002392    443.06058     485.54404
  489.0      0.002045    442.88144     485.21295
  509.0      0.001965    442.70212     484.90771
  420.0      0.002381    442.52246     484.62698
  489.0      0.002045    442.34238     484.37012
  479.0      0.002088    442.16208     484.13596
  482.0      0.002075    441.98138     483.92377
  522.0      0.001916    441.80038     483.73285
  495.0      0.002020    441.61905     483.56250
  517.0      0.001934    441.43756     483.41226
  444.0      0.002252    441.25558     483.28162
  477.0      0.002096    441.07343     483.17023
  434.0      0.002304    440.89090     483.07755
  497.0      0.002012    440.70816     483.00342
  486.0      0.002058    440.52509     482.94760
  477.0      0.002096    440.34177     482.90970
  497.0      0.002012    440.15817     482.88950
  460.0      0.002174    439.97421     482.88712
  478.0      0.002092    439.78995     482.90207
  548.0      0.001825    439.60556     482.93457
  428.0      0.002336    439.42084     482.98456
  532.0      0.001880    439.23584     483.05203
  454.0      0.002203    439.05069     483.13684
  469.0      0.002132    438.86511     483.23917
  469.0      0.002132    438.67941     483.35901
  465.0      0.002151    438.49347     483.49646
  467.0      0.002141    438.30722     483.65195
  519.0      0.001927    438.12076     483.82541
  483.0      0.002070    437.93408     484.01694
  494.0      0.002024    437.74722     484.22693
  463.0      0.002160    437.56009     484.45584
  459.0      0.002179    437.37280     484.70358
  471.0      0.002123    437.18524     484.97073
  529.0      0.001890    436.99738     485.25748
  444.0      0.002252    436.80948     485.56427
  499.0      0.002004    436.62128     485.89166
  476.0      0.002101    436.43289     487.25433
  481.0      0.002079    436.24426     487.66425
  506.0      0.001976    436.05563     488.09842
  461.0      0.002169    435.86658     488.55780
  477.0      0.002096    435.67749     489.04309
  435.0      0.002299    435.48816     489.55530
  484.0      0.002066    435.29865     490.09515
  473.0      0.002114    435.10898     490.66385
  478.0      0.002092    434.91907     491.26254
  553.0      0.001808    434.72910     491.89233
  484.0      0.002066    434.53891     492.55457
  456.0      0.002193    434.34860     493.25070
  467.0      0.002141    434.15808     493.98215
  500.0      0.002000    433.96753     494.75061
  438.0      0.002283    433.77670     495.55783
  470.0      0.002128    433.58575     496.40579
  463.0      0.002160    433.39468     497.29675
  452.0      0.002212    433.20349     498.23306
  453.0      0.002208    433.01218     499.21719
  471.0      0.002123    432.82074     500.25220
  536.0      0.001866    432.62903     501.34106
  434.0      0.002304    432.43732     502.48743
  502.0      0.001992    432.24548     503.69528
  504.0      0.001984    432.05359     504.96918
  473.0      0.002114    431.86142     506.31418
  499.0      0.002004    431.66928     507.73602
  434.0      0.002304    431.47702     511.15924
  550.0      0.001818    431.28467     512.86212
  509.0      0.001965    431.09210     514.67462
  498.0      0.002008    430.89957     516.60956
  516.0      0.001938    430.70697     513.14038
  441.0      0.002268    430.51425     515.44464
  565.0      0.001770    430.32135     517.93616
  477.0      0.002096    430.12851     520.65826
  569.0      0.001757    429.93542     523.67603
  519.0      0.001927    429.74234     527.08612
  533.0      0.001876    429.54926     531.02734
  526.0      0.001901    429.35599     535.68884
  526.0      0.001901    429.16275     541.31274
  521.0      0.001919    428.96942     548.18683
  543.0      0.001842    428.77597     556.63013
  576.0      0.001736    428.58252     566.97095
  571.0      0.001751    428.38901     579.52411
  571.0      0.001751    428.19556     594.55225
  655.0      0.001527    428.00192     612.19061
  596.0      0.001678    427.80832     632.34509
  669.0      0.001495    427.61459     654.71545
  698.0      0.001433    427.42081     679.12769
  710.0      0.001408    427.22723     705.86298
  777.0      0.001287    427.03333     735.30579
  736.0      0.001359    426.83960     767.03156
  834.0      0.001199    426.64581     799.10291
  886.0      0.001129    426.45203     828.17224
  850.0      0.001176    426.25818     851.04388
  901.0      0.001110    426.06427     878.29956
  931.0      0.001074    425.87036     891.72430
  843.0      0.001186    425.67654     907.43097
  900.0      0.001111    425.48267     930.58606
  829.0      0.001206    425.28876     964.36603
  850.0      0.001176    425.09485     1009.50348
  831.0      0.001203    424.90091     1064.16809
  902.0      0.001109    424.70715     1123.12012
  976.0      0.001025    424.51328     1178.06189
  1005.0     0.000995    424.31940     1220.87610
  1016.0     0.000984    424.12561     1245.74146
  1035.0     0.000966    423.93179     1266.50122
  1058.0     0.000945    423.73798     1243.26660
  1073.0     0.000932    423.54425     1195.85828
  1043.0     0.000959    423.35056     1152.60950
  988.0      0.001012    423.15686     1086.66479
  915.0      0.001093    422.96323     1027.53381
  958.0      0.001044    422.76956     981.44965
  975.0      0.001026    422.57593     950.66571
  907.0      0.001103    422.38239     934.38538
  1019.0     0.000981    422.18881     929.98474
  940.0      0.001064    421.99536     934.20844
  1001.0     0.000999    421.80197     951.34296
  994.0      0.001006    421.60870     965.05157
  1045.0     0.000957    421.41537     980.47028
  972.0      0.001029    421.22214     996.59027
  1156.0     0.000865    421.02893     1012.83466
  1035.0     0.000966    420.83585     1028.92798
  1162.0     0.000861    420.64285     1044.82690
  1094.0     0.000914    420.44971     1060.70459
  1153.0     0.000867    420.25690     1076.97986
  1138.0     0.000879    420.06409     1094.39087
  1265.0     0.000791    419.87134     1114.13208
  1196.0     0.000836    419.67868     1138.05676
  1336.0     0.000749    419.48608     1168.93201
  1353.0     0.000739    419.29361     1218.72778
  1500.0     0.000667    419.10114     1277.11133
  1583.0     0.000632    418.90878     1358.29004
  1705.0     0.000587    418.71658     1469.81226
  1752.0     0.000571    418.52454     1619.36743
  1951.0     0.000513    418.33246     1813.43933
  2072.0     0.000483    418.14053     2055.81665
  2188.0     0.000457    417.94864     2346.87109
  2597.0     0.000385    417.75693     2682.87524
  2822.0     0.000354    417.56531     3053.12842
  3282.0     0.0003047   417.37372     3438.13403
  3479.0     0.0002874   417.18234     3815.11523
  4152.0     0.0002408   416.99109     4166.54150
  4518.0     0.0002213   416.79984     4481.92285
  4894.0     0.0002043   416.60876     4754.09619
  5147.0     0.0001943   416.41791     4975.13721
  5297.0     0.0001888   416.22705     5132.08984
  5279.0     0.0001894   416.03632     5201.81396
  5130.0     0.0001949   415.84579     5159.32959
  4903.0     0.0002040   415.65533     5002.58203
  4519.0     0.0002213   415.46503     4762.74072
  4226.0     0.0002366   415.27487     4488.46484
  3861.0     0.0002590   415.08490     4226.73926
  3766.0     0.0002655   414.89493     4012.56372
  3609.0     0.0002771   414.70523     3866.32202
  3679.0     0.0002718   414.51559     3820.59985
  3771.0     0.0002652   414.32614     3825.29053
  3889.0     0.0002571   414.13678     3896.39771
  4097.0     0.0002441   413.94760     4023.53247
  4325.0     0.0002312   413.75854     4195.35840
  4595.0     0.0002176   413.56970     4401.97656
  4676.0     0.0002139   413.38101     4634.97266
  4903.0     0.0002040   413.19244     4888.54883
  5002.0     0.0001999   413.00397     5160.65430
  5221.0     0.0001915   412.81580     5451.29443
  5381.0     0.0001858   412.62772     5757.18262
  5726.0     0.0001746   412.43973     6066.49268
  6022.0     0.0001661   412.25204     6357.38770
  6184.0     0.0001617   412.06439     6616.08350
  6156.0     0.0001624   411.87708     6801.48730
  6568.0     0.0001523   411.68976     6925.90039
  6612.0     0.0001512   411.50275     7004.34131
  6840.0     0.0001462   411.31586     7057.67676
  6568.0     0.0001523   411.12918     7102.77441
  6728.0     0.0001486   410.94260     7148.39844
  7618.0     0.0001313   410.75629     7190.24951
  7546.0     0.0001325   410.57010     7213.62842
  7810.0     0.0001280   410.38409     7201.83936
  7797.0     0.0001283   410.19836     7147.10547
  7662.0     0.0001305   410.01266     7057.03369
  7755.0     0.0001289   409.82730     6952.83643
  7449.0     0.0001342   409.64206     6862.25293
  7397.0     0.0001352   409.45697     6812.56299
  6787.0     0.0001473   409.27216     6826.30859
  6665.0     0.0001500   409.08752     6919.12354
  6665.0     0.0001500   408.90311     7097.96533
  6984.0     0.0001432   408.71890     7358.98096
  7931.0     0.0001261   408.53482     7687.51563
  7875.0     0.0001270   408.35098     8082.30225
  8216.0     0.0001217   408.16733     8492.15234
  8212.0     0.0001218   407.98383     8908.46094
  8509.0     0.0001175   407.80060     9291.07617
  8810.0     0.0001135   407.61761     9578.76172
  8885.0     0.0001125   407.43488     9700.56543
  9010.0     0.0001110   407.25226     9612.80664
  9137.0     0.0001094   407.06979     9340.13281
  9026.0     0.0001108   406.88760     8972.30176
  8722.0     0.0001147   406.70578     8622.44238
  8258.0     0.0001211   406.52390     8387.15039
  8012.0     0.0001248   406.34244     8322.62109
  8042.0     0.0001243   406.16110     8435.85059
  8328.0     0.0001201   405.98007     8685.62695
  8288.0     0.0001207   405.79919     8990.31348
  8722.0     0.0001147   405.61862     9244.63574
  8850.0     0.0001130   405.43814     9343.66406
  9121.0     0.0001096   405.25809     9205.76074
  8546.0     0.0001170   405.07806     8786.71387
  8381.0     0.0001193   404.89828     8089.64795
  7513.0     0.0001331   404.71884     7171.67822
  5975.0     0.0001674   404.53952     6133.42578
  4763.0     0.0002100   404.36057     5088.20264
  3792.0     0.0002637   404.18176     4127.90186
  2897.0     0.0003452   404.00323     3306.77588
  2620.0     0.000382    403.82486     2643.68652
  2017.0     0.000496    403.64676     2132.31299
  2017.0     0.000496    403.46896     1752.16174
  1456.0     0.000687    403.29129     1477.37610
  1456.0     0.000687    403.11389     1282.50732
  907.0      0.001103    402.93686     1145.54578
  907.0      0.001103    402.75992     1049.00305
  677.0      0.001477    402.58331     979.83417
  718.0      0.001393    402.40689     928.79395
  637.0      0.001570    402.23074     889.60748
  675.0      0.001481    402.05481     858.32367
  632.0      0.001582    401.87918     832.03876
  610.0      0.001639    401.70374     809.28705
  603.0      0.001658    401.52856     789.07983
  582.0      0.001718    401.35367     770.80792
  531.0      0.001883    401.17908     754.08746
  560.0      0.001786    401.00467     738.66406
  541.0      0.001848    400.83044     724.36011
  551.0      0.001815    400.65656     711.04132
  529.0      0.001890    400.48285     698.60199
  533.0      0.001876    400.30951     686.95453
  465.0      0.002151    400.13638     676.02411
  582.0      0.001718    399.96353     665.74628
  489.0      0.002045    399.79089     656.06482
  477.0      0.002096    399.61856     646.92914
  537.0      0.001862    399.44647     638.29517
  450.0      0.002222    399.27457     630.12384
  547.0      0.001828    399.10297     622.37946
  487.0      0.002053    398.93173     615.03009
  470.0      0.002128    398.76056     608.04761
  496.0      0.002016    398.58984     601.40558
  544.0      0.001838    398.41928     595.08112
  431.0      0.002320    398.24899     589.05243
  455.0      0.002198    398.07910     583.30048
  487.0      0.002053    397.90927     577.80737
  407.0      0.002457    397.73978     572.55725
  486.0      0.002058    397.57062     567.53491
  420.0      0.002381    397.40164     562.72705
  494.0      0.002024    397.23294     558.12115
  419.0      0.002387    397.06458     553.70599
  588.0      0.001701    396.89648     549.82471
  449.0      0.002227    396.72867     545.78937
  543.0      0.001842    396.56100     541.91962
  412.0      0.002427    396.39368     538.20819
  477.0      0.002096    396.22656     534.64899
  420.0      0.002381    396.05981     531.23706
  459.0      0.002179    395.89331     527.96918
  469.0      0.002132    395.72711     524.84473
  494.0      0.002024    395.56113     521.86792
  505.0      0.001980    395.39542     519.05127
  466.0      0.002146    395.22998     516.42328
  473.0      0.002114    395.06485     514.03979
  448.0      0.002232    394.90002     511.99966
  526.0      0.001901    394.73532     510.46448
  460.0      0.002174    394.57104     509.67352
  503.0      0.001988    394.40707     509.95187
  460.0      0.002174    394.24329     511.69748
  501.0      0.001996    394.07971     515.34338
  468.0      0.002137    393.91644     521.76715
  432.0      0.002315    393.75351     530.26758
  521.0      0.001919    393.59079     541.29211
  489.0      0.002045    393.42844     554.45404
  517.0      0.001934    393.26627     568.94928
  497.0      0.002012    393.10443     583.47931
  559.0      0.001789    392.94296     594.83594
  578.0      0.001730    392.78165     604.15192
  568.0      0.001761    392.62061     608.51978
  579.0      0.001727    392.45981     607.03943
  562.0      0.001779    392.29932     599.56702
  557.0      0.001795    392.13919     587.06335
  551.0      0.001815    391.97934     571.53021
  549.0      0.001821    391.81964     555.30182
  531.0      0.001883    391.66025     540.25732
  504.0      0.001984    391.50122     527.43939
  541.0      0.001848    391.34244     517.05884
  425.0      0.002353    391.18387     508.74545
  525.0      0.001905    391.02563     501.88577
  496.0      0.002016    390.86765     495.89746
  461.0      0.002169    390.71002     490.37268
  507.0      0.001972    390.55255     485.10690
  452.0      0.002212    390.39548     480.05447
  472.0      0.002119    390.23859     475.26056
  477.0      0.002096    390.08203     470.79938
  483.0      0.002070    389.92572     466.73651
  409.0      0.002445    389.76971     463.10989
  541.0      0.001848    389.61395     459.92719
  427.0      0.002342    389.45847     457.16797
  453.0      0.002208    389.30328     454.79279
  459.0      0.002179    389.14841     452.75076
  476.0      0.002101    388.99371     450.98758
  376.0      0.002660    388.83932     449.45038
  486.0      0.002058    388.68527     448.09259
  436.0      0.002294    388.53149     446.87506
  495.0      0.002020    388.37787     445.76669
  465.0      0.002151    388.22473     444.74417
  465.0      0.002151    388.07166     443.79007
  501.0      0.001996    387.91898     442.89267
  483.0      0.002070    387.76648     442.04352
  466.0      0.002146    387.61435     441.23734
  461.0      0.002169    387.46243     440.47079
  513.0      0.001949    387.31079     439.74158
  432.0      0.002315    387.15955     439.04861
  426.0      0.002347    387.00845     438.39145
  482.0      0.002075    386.85764     437.77014
  400.0      0.002500    386.70706     437.18530
  549.0      0.001821    386.55688     436.63779
  427.0      0.002342    386.40689     436.12936
  500.0      0.002000    386.25714     435.66226
  438.0      0.002283    386.10773     435.23953
  528.0      0.001894    385.95853     434.86542
  418.0      0.002392    385.80972     434.54572
  491.0      0.002037    385.66104     395.53952
  480.0      0.002083    385.51273     395.86447
  544.0      0.001838    385.36459     396.33658
  492.0      0.002033    385.21671     396.83676
  497.0      0.002012    385.06918     397.45657
  429.0      0.002331    384.92194     398.22592
  525.0      0.001905    384.77487     399.18069
  461.0      0.002169    384.62817     400.36447
  524.0      0.001908    384.48175     401.82721
  532.0      0.001880    384.33542     403.62503
  471.0      0.002123    384.18954     405.82037
  586.0      0.001706    384.04385     408.47925
  463.0      0.002160    383.89847     411.67096
  444.0      0.002252    383.75323     415.46463
  499.0      0.002004    383.60843     419.92523
  529.0      0.001890    383.46375     425.10657
  514.0      0.001946    383.31934     431.04169
  457.0      0.002188    383.17523     437.72971
  501.0      0.001996    383.03134     445.12683
  465.0      0.002151    382.88779     453.14664
  552.0      0.001812    382.74445     461.67841
  444.0      0.002252    382.60144     470.61313
  573.0      0.001745    382.45859     479.85291
  502.0      0.001992    382.31607     489.28104
  571.0      0.001751    382.17371     498.70044
  535.0      0.001869    382.03171     507.76941
  591.0      0.001692    381.88992     515.96948
  588.0      0.001701    381.74832     522.63373
  621.0      0.001610    381.60703     527.06055
  539.0      0.001855    381.46603     528.69812
  555.0      0.001802    381.32523     527.32379
  484.0      0.002066    381.18472     523.11401
  560.0      0.001786    381.04453     516.57672
  495.0      0.002020    380.90439     508.40909
  523.0      0.001912    380.76468     499.36115
  525.0      0.001905    380.62518     490.13675
  613.0      0.001631    380.48587     481.34143
  503.0      0.001988    380.34683     473.46381
  568.0      0.001761    380.20807     466.87936
  590.0      0.001695    380.06949     461.86279
  490.0      0.002041    379.93124     458.59979
  533.0      0.001876    379.79318     457.19757
  543.0      0.001842    379.65543     457.68893
  516.0      0.001938    379.51779     460.03217
  521.0      0.001919    379.38046     464.10669
  556.0      0.001799    379.24338     469.70352
  500.0      0.002000    379.10654     476.51569
  576.0      0.001736    378.96997     484.12711
  523.0      0.001912    378.83362     492.01382
  636.0      0.001572    378.69748     499.56528
  532.0      0.001880    378.56161     506.13257
  588.0      0.001701    378.42593     511.07480
  631.0      0.001585    378.29047     513.78455
  662.0      0.001511    378.15527     513.71368
  673.0      0.001486    378.02029     510.44196
  717.0      0.001395    377.88571     503.81055
  772.0      0.001295    377.75110     494.06689
  573.0      0.001745    377.61688     481.88983
  716.0      0.001397    377.48288     468.24744
  535.0      0.001869    377.34897     454.18964
  497.0      0.002012    377.21545     440.66629
  543.0      0.001842    377.08206     428.40771
  463.0      0.002160    376.94901     417.87039
  467.0      0.002141    376.81610     409.23706
  482.0      0.002075    376.68338     402.46024
  521.0      0.001919    376.55090     403.27063
  501.0      0.001996    376.41867     399.72769
  492.0      0.002033    376.28671     397.23947
  472.0      0.002119    376.15482     395.52139
  471.0      0.002123    376.02332     394.34100
  456.0      0.002193    375.89191     393.52423
  520.0      0.001923    375.76080     392.95078
  488.0      0.002049    375.62982     392.54218
  457.0      0.002188    375.49911     392.25082
  449.0      0.002227    375.36865     392.04929
  488.0      0.002049    375.23828     391.92227
  453.0      0.002208    375.10831     391.86237
  474.0      0.002110    374.97839     391.86591
  477.0      0.002096    374.84869     391.93213
  482.0      0.002075    374.71921     392.06149
  473.0      0.002114    374.59000     392.25580
  506.0      0.001976    374.46100     392.51755
  435.0      0.002299    374.33212     392.85062
  490.0      0.002041    374.20346     393.25949
  474.0      0.002110    374.07498     393.75009
  476.0      0.002101    373.94681     394.32938
  503.0      0.001988    373.81873     395.00555
  440.0      0.002273    373.69089     395.78903
  414.0      0.002415    373.56323     396.69186
  516.0      0.001938    373.43588     397.72861
  431.0      0.002320    373.30859     398.91711
  488.0      0.002049    373.18155     400.27917
  511.0      0.001957    373.05472     401.84247
  520.0      0.001923    372.92798     403.64267
  454.0      0.002203    372.80157     405.92340
  539.0      0.001855    372.67523     408.36331
  488.0      0.002049    372.54919     411.24820
  594.0      0.001684    372.42319     414.71219
  532.0      0.001880    372.29752     418.94781
  544.0      0.001838    372.17194     424.22745
  497.0      0.002012    372.04666     430.92834
  501.0      0.001996    371.92148     439.55869
  562.0      0.001779    371.79645     450.78088
  572.0      0.001748    371.67166     465.42694
  554.0      0.001805    371.54694     484.50204
  584.0      0.001712    371.42261     509.16666
  678.0      0.001475    371.29828     540.68579
  611.0      0.001637    371.17426     580.32813
  702.0      0.001425    371.05026     629.17957
  789.0      0.001267    370.92642     687.84912
  755.0      0.001325    370.80295     756.07892
  861.0      0.001161    370.67953     832.42090
  875.0      0.001143    370.55627     914.29468
  965.0      0.001036    370.43320     998.52893
  1011.0     0.000989    370.31027     1081.73547
  1137.0     0.000880    370.18762     1159.59839
  1159.0     0.000863    370.06503     1225.42615
  1270.0     0.000787    369.94263     1269.80823
  1222.0     0.000818    369.82028     1283.08496
  1291.0     0.000775    369.69824     1259.97961
  1112.0     0.000899    369.57629     1202.77356
  1097.0     0.000912    369.45459     1120.22668
  898.0      0.001114    369.33298     1023.71021
  749.0      0.001335    369.21152     923.69330
  687.0      0.001456    369.09021     828.02075
  666.0      0.001502    368.96899     741.68463
  595.0      0.001681    368.84805     667.28052
  584.0      0.001712    368.72720     605.59290
  513.0      0.001949    368.60651     556.12646
  553.0      0.001808    368.48599     517.56720
  467.0      0.002141    368.36554     488.17834
  603.0      0.001658    368.24536     466.11829
  482.0      0.002075    368.12521     449.66656
  499.0      0.002004    368.00534     437.35541
  486.0      0.002058    367.88547     428.01865
  432.0      0.002315    367.76587     420.78293
  429.0      0.002331    367.64621     415.02469
  428.0      0.002336    367.52682     410.31522
  442.0      0.002262    367.40765     406.36646
  433.0      0.002309    367.28848     402.98721
  481.0      0.002079    367.16940     400.04922
  450.0      0.002222    367.05060     397.46481
  494.0      0.002024    366.93188     395.17157
  414.0      0.002415    366.81335     393.12280
  441.0      0.002268    366.69485     391.28281
  432.0      0.002315    366.57651     389.62286
  463.0      0.002160    366.45834     389.15457
  419.0      0.002387    366.34018     387.87558
  464.0      0.002155    366.22229     386.72879
  423.0      0.002364    366.10446     388.10129
  445.0      0.002247    365.98672     387.21011
  458.0      0.002183    365.86917     386.42657
  431.0      0.002320    365.75171     385.75153
  443.0      0.002257    365.63434     385.19720
  435.0      0.002299    365.51712     384.79642
  430.0      0.002326    365.40002     385.22406
  459.0      0.002179    365.28305     385.42871
  418.0      0.002392    365.16614     386.25430
  465.0      0.002151    365.04944     388.11774
  401.0      0.002494    364.93274     391.64969
  482.0      0.002075    364.81616     397.72574
  473.0      0.002114    364.69965     407.44684
  505.0      0.001980    364.58344     422.04477
  448.0      0.002232    364.46719     442.68497
  546.0      0.001832    364.35114     470.16068
  542.0      0.001845    364.23508     504.50934
  551.0      0.001815    364.11908     544.65466
  573.0      0.001745    364.00333     588.20557
  595.0      0.001681    363.88751     631.43054
  638.0      0.001567    363.77194     669.47443
  643.0      0.001555    363.65649     697.16412
  639.0      0.001565    363.54105     710.23315
  628.0      0.001592    363.42575     706.18115
  650.0      0.001538    363.31046     684.84058
  597.0      0.001675    363.19540     648.90399
  566.0      0.001767    363.08032     603.66345
  659.0      0.001517    362.96536     555.51636
  583.0      0.001715    362.85052     510.19043
  578.0      0.001730    362.73572     471.65521
  455.0      0.002198    362.62112     441.80630
  506.0      0.001976    362.50647     420.71274
  452.0      0.002212    362.39188     407.20303
  489.0      0.002045    362.27740     399.54117
  404.0      0.002475    362.16315     395.97882
  439.0      0.002278    362.04883     395.07382
  401.0      0.002494    361.93463     395.79196
  423.0      0.002364    361.82050     397.46234
  407.0      0.002457    361.70648     399.67816
  414.0      0.002415    361.59259     402.19650
  473.0      0.002114    361.47861     404.86850
  441.0      0.002268    361.36487     407.59253
  419.0      0.002387    361.25101     410.28427
  430.0      0.002326    361.13739     412.85345
  403.0      0.002481    361.02374     415.18375
  469.0      0.002132    360.91025     417.12503
  409.0      0.002445    360.79684     418.50284
  398.0      0.002513    360.68341     419.14700
  407.0      0.002457    360.57013     418.93301
  456.0      0.002193    360.45682     417.81888
  418.0      0.002392    360.34366     415.85822
  460.0      0.002174    360.23041     413.18713
  431.0      0.002320    360.11734     409.99106
  410.0      0.002439    360.00433     406.46909
  370.0      0.002703    359.89142     402.80637
  346.0      0.002890    359.77844     399.26779
  453.0      0.002208    359.66565     395.75494
  375.0      0.002667    359.55286     392.46164
  398.0      0.002513    359.44016     389.44385
  434.0      0.002304    359.32742     386.73306
  425.0      0.002353    359.21478     384.34177
  396.0      0.002525    359.10217     382.26718
  411.0      0.002433    358.98972     380.49588
  377.0      0.002653    358.87717     379.00589
  435.0      0.002299    358.76477     377.77097
  354.0      0.002825    358.65237     376.76227
  434.0      0.002304    358.54007     375.95029
  408.0      0.002451    358.42767     375.30716
  461.0      0.002169    358.31549     374.80789
  370.0      0.002703    358.20322     374.42972
  446.0      0.002242    358.09103     374.15430
  413.0      0.002421    357.97888     373.96652
  451.0      0.002217    357.86682     373.85458
  412.0      0.002427    357.75473     373.81046
  402.0      0.002488    357.64273     373.82864
  357.0      0.002801    357.53076     373.90665
  417.0      0.002398    357.41876     374.04404
  387.0      0.002584    357.30682     372.38474
  446.0      0.002242    357.19501     372.68130
  424.0      0.002358    357.08310     373.05255
  392.0      0.002551    356.97131     373.50958
  416.0      0.002404    356.85938     374.06711
  423.0      0.002364    356.74774     374.74335
  421.0      0.002375    356.63605     375.56149
  354.0      0.002825    356.52432     376.54932
  421.0      0.002375    356.41257     377.73981
  457.0      0.002188    356.30093     379.17181
  421.0      0.002375    356.18936     380.88940
  413.0      0.002421    356.07773     382.94241
  469.0      0.002132    355.96613     385.38525
  418.0      0.002392    355.85452     388.27585
  420.0      0.002381    355.74301     391.67380
  423.0      0.002364    355.63141     395.63751
  412.0      0.002427    355.51996     400.21994
  370.0      0.002703    355.40839     405.46262
  417.0      0.002398    355.29700     411.38904
  403.0      0.002481    355.18549     417.99542
  316.0      0.003165    355.07410     425.24319
  462.0      0.002165    354.96259     433.05249
  366.0      0.002732    354.85123     441.30356
  414.0      0.002415    354.73981     449.84555
  369.0      0.002710    354.62836     458.50922
  430.0      0.002326    354.51700     467.11676
  447.0      0.002237    354.40555     475.47482
  397.0      0.002519    354.29425     483.35025
  508.0      0.001969    354.18283     490.43896
  448.0      0.002232    354.07150     496.35358
  440.0      0.002273    353.96017     500.64838
  413.0      0.002421    353.84882     502.89331
  420.0      0.002381    353.73755     502.77600
  459.0      0.002179    353.62616     500.19318
  377.0      0.002653    353.51483     495.28778
  455.0      0.002198    353.40347     488.41528
  435.0      0.002299    353.29218     480.06396
  392.0      0.002551    353.18085     470.76315
  391.0      0.002558    353.06955     461.00983
  410.0      0.002439    352.95822     451.22458
  395.0      0.002532    352.84686     441.73550
  325.0      0.003077    352.73553     432.78098
  444.0      0.002252    352.62415     424.52005
  439.0      0.002278    352.51282     417.04761
  410.0      0.002439    352.40155     410.40628
  414.0      0.002415    352.29016     404.59869
  451.0      0.002217    352.17877     399.59622
  352.0      0.002841    352.06747     395.34839
  425.0      0.002353    351.95612     391.78937
  427.0      0.002342    351.84473     388.46396
  400.0      0.002500    351.73328     386.06693
  381.0      0.002625    351.62189     384.13181
  364.0      0.002747    351.51053     382.58759
  455.0      0.002198    351.39902     381.37009
  321.0      0.003115    351.28763     380.42300
  406.0      0.002463    351.17618     379.69836
  390.0      0.002564    351.06476     379.15665
  367.0      0.002725    350.95331     378.76566
  412.0      0.002427    350.84177     378.49963
  379.0      0.002639    350.73032     378.33905
  422.0      0.002370    350.61880     378.26862
  329.0      0.003040    350.50729     378.27667
  438.0      0.002283    350.39575     378.35495
  435.0      0.002299    350.28421     382.46173
  356.0      0.002809    350.17270     382.87982
  414.0      0.002415    350.06100     383.37228
  427.0      0.002342    349.94934     383.93958
  326.0      0.003067    349.83783     384.58252
  388.0      0.002577    349.72617     385.30353
  382.0      0.002618    349.61447     386.10559
  436.0      0.002294    349.50269     386.99289
  402.0      0.002488    349.39099     387.97064
  389.0      0.002571    349.27930     389.04517
  379.0      0.002639    349.16754     390.22394
  441.0      0.002268    349.05579     391.51617
  388.0      0.002577    348.94391     392.93301
  456.0      0.002193    348.83212     394.48752
  425.0      0.002353    348.72031     396.19653
  368.0      0.002717    348.60846     398.08167
  396.0      0.002525    348.49655     400.17294
  397.0      0.002519    348.38458     402.51465
  431.0      0.002320    348.27267     405.99301
  453.0      0.002208    348.16058     409.11377
  402.0      0.002488    348.04871     412.85458
  433.0      0.002309    347.93674     417.51315
  467.0      0.002141    347.82458     423.54941
  422.0      0.002370    347.71255     431.64078
  481.0      0.002079    347.60049     442.73071
  434.0      0.002304    347.48828     458.05774
  517.0      0.001934    347.37622     479.15167
  531.0      0.001883    347.26395     507.78372
  500.0      0.002000    347.15179     545.86011
  656.0      0.001524    347.03952     595.22522
  601.0      0.001664    346.92725     657.33051
  697.0      0.001435    346.81494     732.72034
  740.0      0.001351    346.70261     820.41003
  875.0      0.001143    346.59021     917.49707
  897.0      0.001115    346.47778     1019.34637
  971.0      0.001030    346.36551     1119.88818
  1053.0     0.000950    346.25296     1211.16760
  1078.0     0.000928    346.14056     1282.72986
  1107.0     0.000903    346.02798     1322.81519
  1075.0     0.000930    345.91547     1322.52148
  1075.0     0.000930    345.80286     1280.69751
  1008.0     0.000992    345.69031     1204.99426
  1021.0     0.000979    345.57761     1108.40039
  976.0      0.001025    345.46494     1004.76575
  929.0      0.001076    345.35223     905.77563
  826.0      0.001211    345.23956     819.62360
  827.0      0.001209    345.12683     750.81049
  832.0      0.001202    345.01401     700.58942
  826.0      0.001211    344.90121     667.79169
  793.0      0.001261    344.78833     649.80701
  819.0      0.001221    344.67542     643.48694
  787.0      0.001271    344.56250     645.80975
  828.0      0.001208    344.44955     654.25079
  765.0      0.001307    344.33658     666.89917
  773.0      0.001294    344.22351     682.40387
  808.0      0.001238    344.11047     699.84418
  759.0      0.001318    343.99741     718.58722
  827.0      0.001209    343.88428     738.16925
  769.0      0.001300    343.77112     758.21051
  884.0      0.001131    343.65796     778.36530
  792.0      0.001263    343.54483     798.29169
  964.0      0.001037    343.43143     817.64081
  888.0      0.001126    343.31818     837.95941
  848.0      0.001179    343.20483     855.23157
  933.0      0.001072    343.09158     870.87195
  819.0      0.001221    342.97815     884.55798
  923.0      0.001083    342.86487     896.02197
  910.0      0.001099    342.75134     905.08057
  904.0      0.001106    342.63788     911.66718
  961.0      0.001041    342.52441     915.85736
  933.0      0.001072    342.41086     917.88879
  935.0      0.001070    342.29724     918.16705
  993.0      0.001007    342.18369     917.25543
  939.0      0.001065    342.07013     915.85364
  926.0      0.001080    341.95642     914.76453
  951.0      0.001052    341.84277     914.86249
  911.0      0.001098    341.72903     917.06580
  893.0      0.001120    341.61530     927.86792
  899.0      0.001112    341.50153     937.47565
  839.0      0.001192    341.38776     951.88831
  934.0      0.001071    341.27396     970.99225
  892.0      0.001121    341.16010     994.52148
  851.0      0.001175    341.04620     1021.11273
  932.0      0.001073    340.93228     1048.46912
  926.0      0.001080    340.81833     1073.62476
  936.0      0.001068    340.70441     1093.19824
  984.0      0.001016    340.59042     1103.46167
  935.0      0.001070    340.47632     1100.64441
  1009.0     0.000991    340.36230     1082.06995
  995.0      0.001005    340.24823     1047.96350
  969.0      0.001032    340.13419     1002.51282
  1008.0     0.000992    340.02002     953.08185
  920.0      0.001087    339.90591     908.32745
  917.0      0.001091    339.79163     876.36639
  935.0      0.001070    339.67752     863.41510
  878.0      0.001139    339.56323     872.86707
  949.0      0.001054    339.44907     904.74445
  876.0      0.001142    339.33478     955.64282
  958.0      0.001044    339.22049     1019.30212
  1011.0     0.000989    339.10617     1087.34558
  1057.0     0.000946    338.99185     1149.54578
  1111.0     0.000900    338.87753     1194.12952
  1173.0     0.000853    338.76312     1209.56848
  1221.0     0.000819    338.64877     1188.36914
  1278.0     0.000782    338.53436     1130.63257
  1186.0     0.000843    338.41995     1044.04736
  1145.0     0.000873    338.30548     940.58569
  1024.0     0.000977    338.19095     832.74377
  986.0      0.001014    338.07645     730.95380
  848.0      0.001179    337.96204     642.32904
  718.0      0.001393    337.84753     570.42303
  606.0      0.001650    337.73300     515.70197
  557.0      0.001795    337.61844     476.45584
  471.0      0.002123    337.50385     449.83691
  424.0      0.002358    337.38937     432.75232
  396.0      0.002525    337.27472     422.45551
  422.0      0.002370    337.16016     417.28809
  384.0      0.002604    337.04559     415.35410
  427.0      0.002342    336.93097     416.11340
  402.0      0.002488    336.81638     419.27963
  410.0      0.002439    336.70169     424.87689
  489.0      0.002045    336.58713     433.10324
  387.0      0.002584    336.47247     444.21582
  484.0      0.002066    336.35782     458.44138
  431.0      0.002320    336.24310     475.89694
  457.0      0.002188    336.12848     496.49084
  469.0      0.002132    336.01379     519.77240
  516.0      0.001938    335.89914     544.73456
  442.0      0.002262    335.78458     569.63391
  585.0      0.001709    335.66986     591.95740
  568.0      0.001761    335.55518     608.67670
  571.0      0.001751    335.44052     616.83405
  586.0      0.001706    335.32584     614.32251
  545.0      0.001835    335.21115     600.56683
  593.0      0.001686    335.09650     576.81952
  557.0      0.001795    334.98187     545.92426
  550.0      0.001818    334.86722     511.61957
  490.0      0.002041    334.75253     477.64053
  506.0      0.001976    334.63794     446.94379
  508.0      0.001969    334.52328     421.28864
  412.0      0.002427    334.40857     401.22409
  393.0      0.002545    334.29398     386.37704
  423.0      0.002364    334.17938     375.85611
  379.0      0.002639    334.06476     368.61588
  408.0      0.002451    333.95020     363.69827
  350.0      0.002857    333.83563     360.34280
  392.0      0.002551    333.72110     358.00204
  342.0      0.002924    333.60657     356.30722
  373.0      0.002681    333.49207     355.02048
  365.0      0.002740    333.37744     353.99222
  356.0      0.002809    333.26300     353.12955
  358.0      0.002793    333.14856     352.37463
  295.0      0.003390    333.03409     351.69177
  325.0      0.003077    332.91965     351.05936
  349.0      0.002865    332.80521     350.46350
  358.0      0.002793    332.69092     349.89618
  261.0      0.00383     332.57651     349.35233
  421.0      0.002375    332.46222     348.82858
  290.0      0.003448    332.34787     348.32257
  361.0      0.002770    332.23358     347.83282
  362.0      0.002762    332.11932     347.35809
  378.0      0.002646    332.00525     346.89737
  405.0      0.002469    331.89099     346.44974
  279.0      0.00358     331.77682     346.01450
  387.0      0.002584    331.66275     345.59070
  372.0      0.002688    331.54855     345.29111
  393.0      0.002545    331.43457     344.89102
  316.0      0.003165    331.32053     344.50076
  347.0      0.002882    331.20663     344.12009
  316.0      0.003165    331.09265     343.74826
  266.0      0.00376     330.97885     343.38504
  387.0      0.002584    330.86490     343.02994
  302.0      0.003311    330.75119     342.68268
  368.0      0.002717    330.63745     345.57422
  346.0      0.002890    330.52371     345.32043
  341.0      0.002933    330.41006     345.07654
  358.0      0.002793    330.29645     344.84241
  335.0      0.002985    330.18286     344.61758
  323.0      0.003096    330.06943     344.40222
  327.0      0.003058    329.95609     344.19635
  296.0      0.003378    329.84268     343.99973
  361.0      0.002770    329.72925     343.81235
  292.0      0.003425    329.61606     343.63446
  333.0      0.003003    329.50284     343.46597
  337.0      0.002967    329.38971     343.30682
  329.0      0.003040    329.27661     343.15741
  335.0      0.002985    329.16351     343.01752
  303.0      0.003300    329.05060     342.88757
  362.0      0.002762    328.93768     342.76758
  321.0      0.003115    328.82498     342.65775
  353.0      0.002833    328.71216     342.55856
  341.0      0.002933    328.59952     342.49246
  384.0      0.002604    328.48685     342.41544
  292.0      0.003425    328.37436     342.35007
  362.0      0.002762    328.26187     342.29642
  278.0      0.00360     328.14951     342.25494
  339.0      0.002950    328.03723     342.22638
  270.0      0.00370     327.92496     342.21112
  350.0      0.002857    327.81284     342.20993
  323.0      0.003096    327.70074     342.22339
  342.0      0.002924    327.58884     342.25223
  346.0      0.002890    327.47696     342.29736
  345.0      0.002899    327.36517     342.35950
  317.0      0.003155    327.25342     342.44000
  254.0      0.00394     327.14178     347.51630
  385.0      0.002597    327.03036     347.90903
  341.0      0.002933    326.91888     348.34674
  341.0      0.002933    326.80762     348.83340
  332.0      0.003012    326.69632     349.37360
  317.0      0.003155    326.58527     349.97278
  343.0      0.002915    326.47424     350.63715
  337.0      0.002967    326.36337     351.37338
  309.0      0.003236    326.25262     352.18951
  308.0      0.003247    326.14185     353.09515
  401.0      0.002494    326.03128     354.10074
  352.0      0.002841    325.92068     355.21912
  350.0      0.002857    325.81036     356.46582
  331.0      0.003021    325.70013     357.85989
  374.0      0.002674    325.59003     359.42618
  329.0      0.003040    325.47992     361.19867
  289.0      0.003460    325.37012     363.22580
  349.0      0.002865    325.26028     365.58096
  342.0      0.002924    325.15060     368.37653
  312.0      0.003205    325.04108     371.78638
  373.0      0.002681    324.93164     376.07535
  321.0      0.003115    324.82242     381.63821
  458.0      0.002183    324.71329     389.04175
  319.0      0.003135    324.60422     399.06799
  410.0      0.002439    324.49545     412.74863
  441.0      0.002268    324.38669     431.37613
  406.0      0.002463    324.27805     456.47961
  541.0      0.001848    324.16959     489.74335
  471.0      0.002123    324.06125     532.84991
  613.0      0.001631    323.95300     587.22076
  597.0      0.001675    323.84503     653.64648
  696.0      0.001437    323.73715     731.83307
  734.0      0.001362    323.62946     820.00641
  815.0      0.001227    323.52188     914.83203
  950.0      0.001053    323.41437     1012.05029
  1004.0     0.000996    323.30713     1105.65356
  1098.0     0.000911    323.19998     1189.47449
  1258.0     0.000795    323.09305     1256.06738
  1233.0     0.000811    322.98621     1298.48462
  1254.0     0.000797    322.87964     1313.33203
  1303.0     0.000767    322.77316     1303.04065
  1196.0     0.000836    322.66681     1275.10706
  1280.0     0.000781    322.56070     1239.12061
  1130.0     0.000885    322.45474     1203.91785
  1143.0     0.000875    322.34903     1176.03076
  1134.0     0.000882    322.24329     1159.25806
  1030.0     0.000971    322.13791     1154.82776
  1088.0     0.000919    322.03265     1158.08386
  1023.0     0.000978    321.92755     1173.78870
  1105.0     0.000905    321.82269     1194.16638
  1114.0     0.000898    321.71793     1214.28943
  1065.0     0.000939    321.61353     1228.89612
  1142.0     0.000876    321.50903     1234.84326
  1065.0     0.000939    321.40500     1228.91541
  1091.0     0.000917    321.30103     1207.51965
  1098.0     0.000911    321.19730     1174.03235
  1075.0     0.000930    321.09372     1132.30383
  1081.0     0.000925    320.99039     1087.65540
  1029.0     0.000972    320.88736     1046.27039
  1049.0     0.000953    320.78427     1013.68256
  1028.0     0.000973    320.68167     995.37018
  1090.0     0.000917    320.57904     995.39441
  1109.0     0.000902    320.47675     1015.94061
  1038.0     0.000963    320.37469     1056.53174
  1010.0     0.000990    320.27277     1113.24585
  1113.0     0.000898    320.17117     1178.29114
  1099.0     0.000910    320.06964     1240.41687
  1076.0     0.000929    319.96844     1286.50452
  1091.0     0.000917    319.86749     1304.25623
  1155.0     0.000866    319.76669     1285.29211
  1052.0     0.000951    319.66614     1227.55225
  1073.0     0.000932    319.56583     1135.99402
  951.0      0.001052    319.46576     1021.27795
  949.0      0.001054    319.36588     896.99359
  807.0      0.001239    319.26630     776.47546
  742.0      0.001348    319.16687     670.21478
  647.0      0.001546    319.06790     584.49506
  566.0      0.001767    318.96890     521.42322
  541.0      0.001848    318.87024     480.01364
  510.0      0.001961    318.77194     457.67563
  465.0      0.002151    318.67380     451.50204
  549.0      0.001821    318.57590     459.03131
  507.0      0.001972    318.47824     478.44446
  553.0      0.001808    318.38095     508.33124
  609.0      0.001642    318.28381     547.21124
  584.0      0.001712    318.18698     593.02930
  674.0      0.001484    318.09042     642.85284
  682.0      0.001466    317.99408     692.90497
  599.0      0.001669    317.89804     738.74396
  740.0      0.001351    317.80222     775.34320
  663.0      0.001508    317.70682     797.38708
  706.0      0.001416    317.61154     800.41071
  643.0      0.001555    317.51675     782.62732
  602.0      0.001661    317.42188     746.03143
  570.0      0.001754    317.32761     695.70966
  559.0      0.001789    317.23343     638.21234
  431.0      0.002320    317.13971     579.51416
  453.0      0.002208    317.04617     524.61206
  424.0      0.002358    316.95303     476.82758
  418.0      0.002392    316.86011     437.85669
  362.0      0.002762    316.76746     408.00208
  351.0      0.002849    316.67514     386.55978
  270.0      0.00370     316.58316     372.25317
  401.0      0.002494    316.49142     363.60870
  315.0      0.003175    316.40002     359.20963
  373.0      0.002681    316.30896     357.81503
  395.0      0.002532    316.21817     358.37030
  338.0      0.002959    316.12772     359.96475
  407.0      0.002457    316.03757     361.78781
  365.0      0.002740    315.94769     363.12537
  328.0      0.003049    315.85828     363.40350
  406.0      0.002463    315.76901     362.26093
  405.0      0.002469    315.68018     359.60977
  397.0      0.002519    315.59167     355.64594
  327.0      0.003058    315.50348     350.79120
  364.0      0.002747    315.41565     345.58105
  313.0      0.003195    315.32806     340.53445
  334.0      0.002994    315.24094     336.04919
  263.0      0.00380     315.15402     332.34732
  289.0      0.003460    315.06760     329.47952
  297.0      0.003367    314.98141     327.36795
  341.0      0.002933    314.89572     325.86554
  383.0      0.002611    314.81030     324.80856
  333.0      0.003003    314.72507     324.05222
  355.0      0.002817    314.64038     323.48529
  341.0      0.002933    314.55600     323.03214
  344.0      0.002907    314.47205     322.64575
  304.0      0.003289    314.38834     322.29935
  395.0      0.002532    314.30508     321.97861
  362.0      0.002762    314.22214     321.67590
  437.0      0.002288    314.13956     321.38788
  394.0      0.002538    314.05743     321.11221
  404.0      0.002475    313.97571     320.84747
  347.0      0.002882    313.89426     320.59308
  444.0      0.002252    313.81329     320.34824
  348.0      0.002874    313.73257     320.11246
  375.0      0.002667    313.65231     319.88489
  411.0      0.002433    313.57245     319.66531
  373.0      0.002681    313.49298     319.45303
  315.0      0.003175    313.41388     319.24802
  360.0      0.002778    313.33524     319.04944
  359.0      0.002786    313.25693     318.85736
  288.0      0.003472    313.17908     315.75180
  373.0      0.002681    313.10156     315.63535
  284.0      0.00352     313.02448     315.52243
  315.0      0.003175    312.94785     315.41269
  297.0      0.003367    312.87164     315.30603
  328.0      0.003049    312.79581     315.20236
  284.0      0.00352     312.72031     315.10168
  322.0      0.003106    312.64536     315.00378
  315.0      0.003175    312.57074     314.90854
  261.0      0.00383     312.49667     314.91864
  373.0      0.002681    312.42291     314.83066
  319.0      0.003135    312.34961     314.74527
  225.0      0.00444     312.27676     314.66248
  305.0      0.003279    312.20435     314.58215
  234.0      0.00427     312.13239     314.50415
  285.0      0.00351     312.06079     314.42883
  287.0      0.003484    311.98975     314.35590
  359.0      0.002786    311.91901     314.28528
  314.0      0.003185    311.84882     315.15298
  280.0      0.00357     311.77908     315.12320
  296.0      0.003378    311.70981     315.09802
  331.0      0.003021    311.64093     315.07736
  284.0      0.00352     311.57254     315.06189
  304.0      0.003289    311.50458     315.05151
  278.0      0.00360     311.43713     315.04633
  315.0      0.003175    311.37021     315.04703
  291.0      0.003436    311.30359     314.13437
  338.0      0.002959    311.23752     314.16623
  304.0      0.003289    311.17203     314.20410
  382.0      0.002618    311.10687     314.24866
  324.0      0.003086    311.04218     314.30045
  332.0      0.003012    310.97812     314.35980
  304.0      0.003289    310.91440     314.42770
  292.0      0.003425    310.85126     314.50479
  294.0      0.003401    310.78854     314.59167
  294.0      0.003401    310.72644     314.68942
  223.0      0.00448     310.66461     314.79916
  309.0      0.003236    310.60339     314.92191
  231.0      0.00433     310.54276     315.05914
  386.0      0.002591    310.48254     315.21231
  338.0      0.002959    310.42282     315.38318
  288.0      0.003472    310.36362     315.57388
  341.0      0.002933    310.30490     315.78680
  328.0      0.003049    310.24677     316.02481
  280.0      0.00357     310.18909     316.29190
  379.0      0.002639    310.13196     316.59222
  307.0      0.003257    310.07526     316.93210
  323.0      0.003096    310.01920     317.31970
  352.0      0.002841    309.96365     317.76624
  288.0      0.003472    309.90863     318.28735
  327.0      0.003058    309.85410     318.90546
  297.0      0.003367    309.80005     319.65146
  357.0      0.002801    309.74661     320.56821
  314.0      0.003185    309.69366     321.71390
  373.0      0.002681    309.64136     323.16528
  302.0      0.003311    309.58954     325.02039
  339.0      0.002950    309.53824     327.40036
  322.0      0.003106    309.48749     330.44809
  368.0      0.002717    309.43729     334.32346
  300.0      0.003333    309.38770     339.19437
  373.0      0.002681    309.33853     345.22043
  367.0      0.002725    309.29004     352.53128
  429.0      0.002331    309.24207     361.19684
  350.0      0.002857    309.19470     371.19199
  389.0      0.002571    309.14789     382.35959
  409.0      0.002445    309.10159     394.38132
  417.0      0.002398    309.05588     406.77420
  408.0      0.002451    309.01071     418.91669
  440.0      0.002273    308.96619     430.08575
  407.0      0.002457    308.92227     439.46802
  458.0      0.002183    308.87881     446.17517
  435.0      0.002299    308.83600     449.36469
  406.0      0.002463    308.79382     448.50687
  417.0      0.002398    308.75220     443.64969
  399.0      0.002506    308.71112     435.46014
  412.0      0.002427    308.67072     424.99924
  352.0      0.002841    308.63086     413.40463
  374.0      0.002674    308.59158     401.66336
  344.0      0.002907    308.55295     390.51907
  341.0      0.002933    308.51483     380.47147
  287.0      0.003484    308.47739     371.81158
  392.0      0.002551    308.44055     364.66165
  298.0      0.003356    308.40427     359.01425
  375.0      0.002667    308.36871     354.76791
  287.0      0.003484    308.33368     351.75958
  345.0      0.002899    308.29935     349.79517
  323.0      0.003096    308.26547     348.67239
  299.0      0.003344    308.23242     348.19925
  311.0      0.003215    308.19989     348.20389
  333.0      0.003003    308.16803     348.53986
  291.0      0.003436    308.13672     349.08691
  325.0      0.003077    308.10608     349.74899
  285.0      0.00351     308.07602     350.45206
  317.0      0.003155    308.04672     351.14194
  311.0      0.003215    308.01804     351.78458
  280.0      0.00357     307.98996     352.36819
  350.0      0.002857    307.96243     352.90967
  364.0      0.002747    307.93567     353.46371
  313.0      0.003195    307.90958     359.19968
  406.0      0.002463    307.88406     360.58090
  305.0      0.003279    307.85922     362.58182
  334.0      0.002994    307.83505     365.60834
  336.0      0.002976    307.81152     370.22894
  336.0      0.002976    307.78873     377.21573
  426.0      0.002347    307.76648     387.58990
  436.0      0.002294    307.74496     402.66910
  480.0      0.002083    307.72403     424.11618
  464.0      0.002155    307.70386     453.98431
  588.0      0.001701    307.68433     494.75443
  592.0      0.001689    307.66544     549.34778
  647.0      0.001546    307.64737     621.09552
  760.0      0.001316    307.62988     713.63135
  874.0      0.001144    307.61304     830.66693
  1050.0     0.000952    307.59692     975.60492
  1174.0     0.000852    307.58142     1150.95337
  1468.0     0.000681    307.56677     1357.52393
  1651.0     0.000606    307.55267     1593.45703
  1996.0     0.000501    307.53922     1853.19348
  2355.0     0.000425    307.52661     2126.65454
  2698.0     0.000371    307.51459     2399.03638
  3010.0     0.0003322   307.50333     2651.61255
  3338.0     0.0002996   307.49280     2863.63501
  3629.0     0.0002756   307.48291     3013.96338
  3801.0     0.0002631   307.47379     3084.77319
  3879.0     0.0002578   307.46530     3063.80029
  3801.0     0.0002631   307.45752     2949.29639
  3467.0     0.0002884   307.45053     2751.12598
  2992.0     0.0003342   307.44415     2489.00781
  2557.0     0.000391    307.43860     2188.05566
  2013.0     0.000497    307.43375     1874.05688
  1624.0     0.000616    307.42963     1569.74683
  1247.0     0.000802    307.42618     1292.42053
  995.0      0.001005    307.42346     1052.90588
  706.0      0.001416    307.42142     855.76807
  661.0      0.001513    307.42032     700.44165
  493.0      0.002028    307.41974     582.83417
  553.0      0.001808    307.41995     496.95972
  460.0      0.002174    307.42093     436.29156
  363.0      0.002755    307.42261     394.68884
  446.0      0.002242    307.42505     366.90598
  290.0      0.003448    307.42825     348.77039
  439.0      0.002278    307.43219     337.14590
  299.0      0.003344    307.43686     329.78391
  382.0      0.002618    307.44232     325.13663
  330.0      0.003030    307.44836     322.17679
  353.0      0.002833    307.45541     320.24557
  375.0      0.002667    307.46307     318.93301
  338.0      0.002959    307.47156     317.99139
  304.0      0.003289    307.48074     317.27524
  365.0      0.002740    307.49075     316.70038
  379.0      0.002639    307.50143     316.21924
  296.0      0.003378    307.51294     315.80450
  336.0      0.002976    307.52518     315.44070
  222.0      0.00450     307.53830     315.11816
  356.0      0.002809    307.55203     314.83118
  235.0      0.00426     307.56662     314.57541
  343.0      0.002915    307.58203     314.34824
  344.0      0.002907    307.59811     314.14746
  347.0      0.002882    307.61508     313.97171
  274.0      0.00365     307.63272     313.82031
  352.0      0.002841    307.65121     313.69342
  238.0      0.00420     307.67056     313.59171
  258.0      0.00388     307.69064     313.51740
  280.0      0.00357     307.71140     313.47400
  323.0      0.003096    307.73312     313.46667
  309.0      0.003236    307.75549     313.50308
  305.0      0.003279    307.77878     313.59320
  335.0      0.002985    307.80280     313.75073
  244.0      0.00410     307.82755     313.99249
  271.0      0.00369     307.85318     314.33963
  343.0      0.002915    307.87961     314.81696
  293.0      0.003413    307.90677     315.45331
  308.0      0.003247    307.93491     316.28049
  340.0      0.002941    307.96375     317.33243
  306.0      0.003268    307.99338     318.64261
  295.0      0.003390    308.02383     320.24231
  296.0      0.003378    308.05518     322.23129
  359.0      0.002786    308.08728     324.47562
  292.0      0.003425    308.12021     327.04764
  343.0      0.002915    308.15390     329.92590
  260.0      0.00385     308.18839     333.06415
  362.0      0.002762    308.22379     336.38977
  278.0      0.00360     308.26013     339.80542
  386.0      0.002591    308.29703     343.19360
  247.0      0.00405     308.33490     346.42279
  329.0      0.003040    308.37357     349.34979
  303.0      0.003300    308.41312     351.82037
  339.0      0.002950    308.45337     353.67325
  303.0      0.003300    308.49460     354.75626
  305.0      0.003279    308.53665     355.06293
  300.0      0.003333    308.57941     354.33066
  289.0      0.003460    308.62314     352.70117
  282.0      0.00355     308.66772     350.29300
  300.0      0.003333    308.71310     347.28140
  287.0      0.003484    308.75934     343.86661
  331.0      0.003021    308.80634     340.24701
  325.0      0.003077    308.85428     336.60010
  354.0      0.002825    308.90308     333.07385
  288.0      0.003472    308.95261     329.78207
  297.0      0.003367    309.00311     326.80457
  328.0      0.003049    309.05435     324.18918
  303.0      0.003300    309.10660     321.95517
  300.0      0.003333    309.15955     320.09824
  259.0      0.00386     309.21344     318.59622
  301.0      0.003322    309.26819     317.41470
  314.0      0.003185    309.32373     316.51276
  289.0      0.003460    309.38025     315.84775
  280.0      0.00357     309.43759     315.37958
  281.0      0.00356     309.49573     315.07275
  293.0      0.003413    309.55481     314.89914
  306.0      0.003268    309.61465     314.83911
  286.0      0.003497    309.67551     314.88162
  275.0      0.00364     309.73727     315.02521
  336.0      0.002976    309.79968     315.27759
  216.0      0.00463     309.86310     315.65524
  373.0      0.002681    309.92737     316.18228
  254.0      0.00394     309.99249     316.88782
  398.0      0.002513    310.05859     317.80286
  273.0      0.00366     310.12549     318.95459
  410.0      0.002439    310.19330     320.36026
  326.0      0.003067    310.26193     322.01785
  354.0      0.002825    310.33154     323.89960
  345.0      0.002899    310.40198     325.94507
  289.0      0.003460    310.47324     328.06232
  393.0      0.002545    310.54544     330.13431
  321.0      0.003115    310.61847     332.02936
  362.0      0.002762    310.69254     333.60794
  331.0      0.003021    310.76736     334.73584
  294.0      0.003401    310.84314     335.31693
  329.0      0.003040    310.91980     335.33704
  261.0      0.00383     310.99734     334.88272
  358.0      0.002793    311.07574     334.11649
  371.0      0.002695    311.15512     333.22751
  361.0      0.002770    311.23526     332.39114
  286.0      0.003497    311.31641     331.74823
  340.0      0.002941    311.39850     331.39670
  339.0      0.002950    311.48141     331.39301
  345.0      0.002899    311.56519     331.75513
  328.0      0.003049    311.64993     332.46973
  283.0      0.00353     311.73547     333.76529
  374.0      0.002674    311.82202     335.07050
  332.0      0.003012    311.90945     336.57535
  313.0      0.003195    311.99783     338.21344
  389.0      0.002571    312.08704     339.91733
  373.0      0.002681    312.17725     341.62082
  393.0      0.002545    312.26828     343.25912
  265.0      0.00377     312.36029     344.76898
  372.0      0.002688    312.45309     346.08798
  333.0      0.003003    312.54688     346.32794
  308.0      0.003247    312.64160     347.10831
  353.0      0.002833    312.73721     347.54251
  378.0      0.002646    312.83371     347.60645
  345.0      0.002899    312.93112     347.29932
  366.0      0.002732    313.02957     346.64502
  325.0      0.003077    313.12878     345.69040
  389.0      0.002571    313.22900     344.49936
  335.0      0.002985    313.33002     345.57297
  335.0      0.002985    313.43210     344.16995
  400.0      0.002500    313.53503     342.75543
  345.0      0.002899    313.63892     341.40088
  340.0      0.002941    313.74374     340.17551
  343.0      0.002915    313.84937     339.14923
  396.0      0.002525    313.95612     338.39572
  340.0      0.002941    314.06357     337.99661
  348.0      0.002874    314.17200     338.04276
  326.0      0.003067    314.28137     338.63330
  403.0      0.002481    314.39169     339.87112
  360.0      0.002778    314.50296     341.85236
  323.0      0.003096    314.61508     344.65063
  385.0      0.002597    314.72818     348.29602
  327.0      0.003058    314.84219     352.75034
  371.0      0.002695    314.95718     357.88382
  259.0      0.00386     315.07303     363.46045
  419.0      0.002387    315.18985     369.14435
  341.0      0.002933    315.30759     374.52527
  414.0      0.002415    315.42627     379.15106
  327.0      0.003058    315.54590     382.60812
  388.0      0.002577    315.66638     384.37335
  369.0      0.002710    315.78778     384.22449
  334.0      0.002994    315.91016     382.15125
  379.0      0.002639    316.03342     378.42654
  323.0      0.003096    316.15775     373.51047
  364.0      0.002747    316.28293     367.91931
  347.0      0.002882    316.40900     362.12805
  339.0      0.002950    316.53604     356.52115
  363.0      0.002755    316.66409     351.37479
  279.0      0.00358     316.79297     346.85513
  342.0      0.002924    316.92285     343.03036
  286.0      0.003497    317.05365     339.88950
  351.0      0.002849    317.18530     337.36856
  286.0      0.003497    317.31796     335.37531
  338.0      0.002959    317.45154     333.81006
  292.0      0.003425    317.58612     332.58109
  287.0      0.003484    317.72147     331.61130
  315.0      0.003175    317.85797     330.84103
  317.0      0.003155    317.99524     330.22681
  312.0      0.003205    318.13351     329.73785
  328.0      0.003049    318.27271     329.35257
  324.0      0.003086    318.41278     329.05594
  285.0      0.00351     318.55389     328.83667
  316.0      0.003165    318.69592     328.68594
  298.0      0.003356    318.83887     328.59601
  316.0      0.003165    318.98276     328.56030
  354.0      0.002825    319.12759     328.57285
  339.0      0.002950    319.27338     333.26953
  267.0      0.00375     319.42001     333.54120
  312.0      0.003205    319.56769     333.85706
  320.0      0.003125    319.71625     334.21399
  334.0      0.002994    319.86575     334.60989
  282.0      0.00355     320.01617     335.04306
  321.0      0.003115    320.16760     335.51257
  303.0      0.003300    320.31989     336.01785
  353.0      0.002833    320.47324     336.55905
  304.0      0.003289    320.62735     337.13657
  429.0      0.002331    320.78241     337.75153
  306.0      0.003268    320.93851     338.40536
  422.0      0.002370    321.09546     339.10001
  334.0      0.002994    321.25345     339.83789
  308.0      0.003247    321.41235     340.62173
  378.0      0.002646    321.57224     341.45517
  295.0      0.003390    321.73294     342.34207
  392.0      0.002551    321.89462     343.28738
  292.0      0.003425    322.05725     344.29700
  351.0      0.002849    322.22076     345.37802
  338.0      0.002959    322.38522     346.53891
  362.0      0.002762    322.55063     347.79065
  285.0      0.00351     322.71707     349.14633
  392.0      0.002551    322.88437     350.62280
  379.0      0.002639    323.05261     352.24078
  305.0      0.003279    323.22171     354.02612
  359.0      0.002786    323.39182     356.01129
  336.0      0.002976    323.56281     358.23621
  356.0      0.002809    323.73468     360.75162
  348.0      0.002874    323.90768     363.79352
  373.0      0.002681    324.08148     367.10757
  360.0      0.002778    324.25629     371.00446
  358.0      0.002793    324.43185     375.56549
  418.0      0.002392    324.60855     381.47833
  370.0      0.002703    324.78607     388.17096
  437.0      0.002288    324.96448     396.45648
  452.0      0.002212    325.14389     406.87680
  510.0      0.001961    325.32419     420.15454
  442.0      0.002262    325.50558     437.22232
  502.0      0.001992    325.68762     459.23642
  532.0      0.001880    325.87076     487.56320
  668.0      0.001497    326.05484     523.72235
  573.0      0.001745    326.23975     569.27838
  806.0      0.001241    326.42563     625.66852
  861.0      0.001161    326.61234     693.97186
  916.0      0.001092    326.80014     774.34692
  1044.0     0.000958    326.98868     866.83301
  1058.0     0.000945    327.17834     969.38855
  1237.0     0.000808    327.36877     1078.85706
  1254.0     0.000797    327.56027     1190.99890
  1379.0     0.000725    327.75256     1299.79492
  1516.0     0.000660    327.94580     1398.97083
  1497.0     0.000668    328.13995     1481.47852
  1565.0     0.000639    328.33505     1540.10339
  1501.0     0.000666    328.53107     1570.02222
  1626.0     0.000615    328.72794     1569.28137
  1559.0     0.000641    328.92581     1540.00342
  1472.0     0.000679    329.12457     1486.87598
  1552.0     0.000644    329.32425     1415.44336
  1456.0     0.000687    329.52478     1331.15149
  1478.0     0.000677    329.72623     1239.29041
  1394.0     0.000717    329.92862     1145.24146
  1392.0     0.000718    330.13190     1054.45898
  1347.0     0.000742    330.33612     972.08270
  1321.0     0.000757    330.54120     902.40717
  1286.0     0.000778    330.74731     848.44562
  1263.0     0.000792    330.95416     811.70483
  1215.0     0.000823    331.16199     792.20673
  1169.0     0.000855    331.37076     788.71857
  1163.0     0.000860    331.58026     799.11621
  1139.0     0.000878    331.79083     820.77228
  1123.0     0.000890    332.00229     850.89026
  1055.0     0.000948    332.21466     886.73157
  1159.0     0.000863    332.42780     925.73071
  996.0      0.001004    332.64200     965.52264
  1115.0     0.000897    332.85693     1003.91223
  1114.0     0.000898    333.07275     1038.82874
  1177.0     0.000850    333.28967     1068.30212
  1159.0     0.000863    333.50732     1090.49487
  1161.0     0.000861    333.72595     1103.80920
  1161.0     0.000861    333.94543     1107.05798
  1111.0     0.000900    334.16580     1099.64990
  1210.0     0.000826    334.38696     1081.71521
  1206.0     0.000829    334.60916     1054.11731
  1090.0     0.000917    334.83215     1018.32538
  1070.0     0.000935    335.05597     976.19855
  1131.0     0.000884    335.28082     929.73871
  1085.0     0.000922    335.50647     880.88696
  1142.0     0.000876    335.73309     831.39087
  1005.0     0.000995    335.96042     782.74811
  1095.0     0.000913    336.18875     736.20880
  1040.0     0.000962    336.41788     692.96924
  1009.0     0.000991    336.64795     653.68701
  999.0      0.001001    336.87878     619.42352
  1061.0     0.000943    337.11050     591.22247
  964.0      0.001037    337.34329     570.37030
  1007.0     0.000993    337.57669     558.49097
  1008.0     0.000992    337.81122     557.57330
  922.0      0.001085    338.04636     569.87811
  1028.0     0.000973    338.28247     597.68011
  980.0      0.001020    338.51944     642.81586
  1008.0     0.000992    338.75714     706.05835
  1060.0     0.000943    338.99594     786.39899
  1089.0     0.000918    339.23541     880.40717
  1117.0     0.000895    339.47580     981.89087
  1164.0     0.000859    339.71695     1082.09314
  1255.0     0.000797    339.95920     1170.57092
  1346.0     0.000743    340.20203     1237.02356
  1330.0     0.000752    340.44589     1271.98425
  1406.0     0.000711    340.69052     1270.44604
  1488.0     0.000672    340.93594     1231.88477
  1362.0     0.000734    341.18237     1160.70471
  1306.0     0.000766    341.42941     1065.41882
  1261.0     0.000793    341.67752     956.83411
  1037.0     0.000964    341.92627     845.94995
  904.0      0.001106    342.17603     742.06604
  828.0      0.001208    342.42651     651.55835
  723.0      0.001383    342.67786     577.51862
  647.0      0.001546    342.92993     520.16833
  524.0      0.001908    343.18292     477.73795
  529.0      0.001890    343.43680     447.44394
  401.0      0.002494    343.69138     426.30096
  432.0      0.002315    343.94690     412.14471
  415.0      0.002410    344.20319     401.94955
  336.0      0.002976    344.46033     394.70514
  492.0      0.002033    344.71817     389.46240
  417.0      0.002398    344.97696     385.64999
  420.0      0.002381    345.23657     382.93927
  499.0      0.002004    345.49683     381.14124
  378.0      0.002646    345.75800     380.13992
  383.0      0.002611    346.01996     379.85666
  411.0      0.002433    346.28278     380.23697
  366.0      0.002732    346.54636     381.25394
  430.0      0.002326    346.81073     382.92065
  333.0      0.003003    347.07584     385.30606
  442.0      0.002262    347.34180     388.54684
  371.0      0.002695    347.60864     393.05698
  382.0      0.002618    347.87616     398.70364
  372.0      0.002688    348.14456     405.97565
  462.0      0.002165    348.41367     415.11838
  395.0      0.002532    348.68353     426.24673
  511.0      0.001957    348.95438     439.25504
  424.0      0.002358    349.22580     454.29773
  506.0      0.001976    349.49799     469.62640
  449.0      0.002227    349.77097     484.78873
  484.0      0.002066    350.04492     498.66699
  461.0      0.002169    350.31934     510.12085
  541.0      0.001848    350.59482     518.15277
  539.0      0.001855    350.87085     522.11731
  528.0      0.001894    351.14783     521.91241
  550.0      0.001818    351.42548     518.02063
  542.0      0.001845    351.70383     511.36081
  646.0      0.001548    351.98300     503.05392
  501.0      0.001996    352.26282     494.21439
  563.0      0.001776    352.54364     485.82321
  534.0      0.001873    352.82495     470.41269
  571.0      0.001751    353.10727     465.31143
  532.0      0.001880    353.39011     462.50674
  537.0      0.001862    353.67380     462.33624
  558.0      0.001792    353.95819     465.01706
  522.0      0.001916    354.24323     470.60776
  554.0      0.001805    354.52917     478.94022
  501.0      0.001996    354.81567     489.54535
  594.0      0.001684    355.10312     501.61115
  462.0      0.002165    355.39108     514.00092
  579.0      0.001727    355.67999     525.35315
  579.0      0.001727    355.96945     534.23199
  517.0      0.001934    356.25970     539.31470
  544.0      0.001838    356.55060     539.62213
  586.0      0.001706    356.84225     534.77557
  463.0      0.002160    357.13467     525.13892
  575.0      0.001739    357.42767     511.72705
  537.0      0.001862    357.72162     495.93204
  568.0      0.001761    358.01608     479.21890
  425.0      0.002353    358.31131     462.89975
  450.0      0.002222    358.60718     448.01205
  500.0      0.002000    358.90366     435.28210
  443.0      0.002257    359.20105     425.13181
  401.0      0.002494    359.49896     417.71011
  468.0      0.002137    359.79776     412.95029
  439.0      0.002278    360.09708     410.64203
  336.0      0.002976    360.39719     410.50208
  415.0      0.002410    360.69778     412.22348
  385.0      0.002597    360.99924     415.50308
  402.0      0.002488    361.30121     420.05017
  424.0      0.002358    361.60394     425.58960
  394.0      0.002538    361.90747     431.86688
  380.0      0.002632    362.21146     438.66077
  397.0      0.002519    362.51627     445.80820
  443.0      0.002257    362.82162     453.23114
  417.0      0.002398    363.12772     460.96585
  415.0      0.002410    363.43445     469.18381
  483.0      0.002070    363.74182     478.20300
  377.0      0.002653    364.04977     488.48398
  458.0      0.002183    364.35834     500.59418
  406.0      0.002463    364.66776     515.11774
  511.0      0.001957    364.97769     532.49335
  451.0      0.002217    365.28839     552.79889
  454.0      0.002203    365.59952     575.52942
  432.0      0.002315    365.91141     599.45123
  479.0      0.002088    366.22379     622.60406
  485.0      0.002062    366.53683     642.49768
  588.0      0.001701    366.85065     656.49066
  570.0      0.001754    367.16492     662.28601
  625.0      0.001600    367.47995     658.42377
  608.0      0.001645    367.79547     644.63391
  491.0      0.002037    368.11172     621.94690
  644.0      0.001553    368.42847     592.51605
  465.0      0.002151    368.74579     559.20416
  539.0      0.001855    369.06384     525.04523
  442.0      0.002262    369.38229     492.72974
  491.0      0.002037    369.70160     464.23413
  404.0      0.002475    370.02130     440.66074
  430.0      0.002326    370.34171     422.28125
  458.0      0.002183    370.66260     408.72650
  400.0      0.002500    370.98416     399.23822
  432.0      0.002315    371.30621     392.90936
  416.0      0.002404    371.62903     388.90143
  403.0      0.002481    371.95215     386.41000
  499.0      0.002004    372.27588     384.90991
  367.0      0.002725    372.60031     384.01273
  445.0      0.002247    372.92526     383.46707
  389.0      0.002571    373.25089     383.19913
  407.0      0.002457    373.57690     382.97421
  360.0      0.002778    373.90350     382.82080
  510.0      0.001961    374.23065     382.71667
  329.0      0.003040    374.55826     382.65179
  471.0      0.002123    374.88651     382.62167
  382.0      0.002618    375.21530     382.62488
  396.0      0.002525    375.54465     382.66147
  388.0      0.002577    375.87448     382.73141
  373.0      0.002681    376.20493     382.83649
  369.0      0.002710    376.53580     382.97824
  452.0      0.002212    376.86725     383.16003
  379.0      0.002639    377.19913     383.38608
  405.0      0.002469    377.53159     383.66376
  419.0      0.002387    377.86456     384.00327
  361.0      0.002770    378.19806     384.41858
  447.0      0.002237    378.53214     384.92987
  371.0      0.002695    378.86655     385.56345
  474.0      0.002110    379.20154     386.35394
  436.0      0.002294    379.53690     387.34412
  396.0      0.002525    379.87305     388.58621
  423.0      0.002364    380.20950     390.13937
  418.0      0.002392    380.54639     392.06839
  388.0      0.002577    380.88388     394.43768
  453.0      0.002208    381.22159     397.30432
  413.0      0.002421    381.56012     400.70978
  469.0      0.002132    381.89899     409.13995
  428.0      0.002336    382.23825     413.75751
  451.0      0.002217    382.57794     418.84094
  431.0      0.002320    382.91815     424.27118
  385.0      0.002597    383.25888     429.87958
  461.0      0.002169    383.60001     435.45499
  416.0      0.002404    383.94168     440.75711
  520.0      0.001923    384.28366     445.53497
  520.0      0.001923    384.62616     449.55817
  512.0      0.001953    384.96909     452.64560
  514.0      0.001946    385.31250     454.68240
  556.0      0.001799    385.65616     455.61829
  512.0      0.001953    386.00034     455.46619
  461.0      0.002169    386.34500     454.30496
  485.0      0.002062    386.69006     452.27960
  450.0      0.002222    387.03555     449.58704
  539.0      0.001855    387.38144     446.44348
  419.0      0.002387    387.72772     443.05573
  424.0      0.002358    388.07434     439.60251
  351.0      0.002849    388.42157     436.22849
  386.0      0.002591    388.76898     433.15698
  388.0      0.002577    389.11682     430.23956
  416.0      0.002404    389.46518     427.63486
  438.0      0.002283    389.81378     425.36310
  400.0      0.002500    390.16287     423.42514
  386.0      0.002591    390.51230     421.80533
  425.0      0.002353    390.86209     420.48224
  378.0      0.002646    391.21222     419.43182
  387.0      0.002584    391.56274     418.63577
  443.0      0.002257    391.91370     418.45023
  418.0      0.002392    392.26489     418.16498
  448.0      0.002232    392.61658     418.22165
  412.0      0.002427    392.96851     418.61960
  403.0      0.002481    393.32089     419.55966
  442.0      0.002262    393.67349     421.30112
  446.0      0.002242    394.02655     424.24460
  427.0      0.002342    394.37982     428.96756
  474.0      0.002110    394.73346     436.25055
  437.0      0.002288    395.08759     447.07202
  453.0      0.002208    395.44183     462.55276
  501.0      0.001996    395.79654     483.83206
  478.0      0.002092    396.15155     511.86377
  550.0      0.001818    396.50677     547.40607
  541.0      0.001848    396.86234     589.67847
  546.0      0.001832    397.21829     637.65656
  639.0      0.001565    397.57446     688.90460
  650.0      0.001538    397.93094     739.91907
  609.0      0.001642    398.28775     786.48480
  761.0      0.001314    398.64490     824.28387
  751.0      0.001332    399.00229     849.66528
  752.0      0.001330    399.35992     860.39783
  796.0      0.001256    399.71783     856.22070
  877.0      0.001140    400.07608     839.02747
  796.0      0.001256    400.43448     812.67627
  839.0      0.001192    400.79327     782.18597
  793.0      0.001261    401.15228     753.20721
  847.0      0.001181    401.51160     731.00708
  766.0      0.001305    401.87106     719.86627
  808.0      0.001238    402.23096     722.71106
  754.0      0.001326    402.59091     741.02734
  853.0      0.001172    402.95132     774.98907
  851.0      0.001175    403.31177     823.68610
  898.0      0.001114    403.67242     885.34778
  998.0      0.001002    404.03351     957.48962
  1072.0     0.000933    404.39465     1036.97742
  1118.0     0.000894    404.75616     1120.04028
  1380.0     0.000725    405.11777     1202.29968
  1406.0     0.000711    405.47971     1278.87195
  1629.0     0.000614    405.84174     1344.58667
  1618.0     0.000618    406.20407     1400.06641
  1793.0     0.000558    406.56653     1429.77319
  1768.0     0.000566    406.92917     1436.44702
  1704.0     0.000587    407.29218     1419.50378
  1648.0     0.000607    407.65512     1380.70276
  1585.0     0.000631    408.01849     1323.64417
  1360.0     0.000735    408.38187     1252.92212
  1190.0     0.000840    408.74564     1173.33313
  1108.0     0.000903    409.10934     1089.35925
  908.0      0.001101    409.47330     1004.90784
  840.0      0.001190    409.83752     923.20758
  703.0      0.001422    410.20178     846.76892
  664.0      0.001506    410.56644     777.38092
  594.0      0.001684    410.93094     716.13483
  558.0      0.001792    411.29572     663.48541
  488.0      0.002049    411.66061     619.34387
  467.0      0.002141    412.02582     583.19891
  538.0      0.001859    412.39096     554.24774
  501.0      0.001996    412.75620     531.52417
  455.0      0.002198    413.12173     514.01038
  482.0      0.002075    413.48730     500.72220
  469.0      0.002132    413.85312     490.77020
  476.0      0.002101    414.21887     483.39127
  482.0      0.002075    414.58496     477.96045
  552.0      0.001812    414.95093     473.98593
  490.0      0.002041    415.31723     471.09518
  397.0      0.002519    415.68344     469.01517
  519.0      0.001927    416.04971     467.55188
  400.0      0.002500    416.41635     466.57303
  504.0      0.001984    416.78278     465.99081
  432.0      0.002315    417.14957     465.75143
  401.0      0.002494    417.51620     465.82455
  469.0      0.002132    417.88306     466.19818
  462.0      0.002165    418.24991     466.87347
  447.0      0.002237    418.61676     467.86264
  506.0      0.001976    418.98383     469.18738
  510.0      0.001961    419.35095     470.87735
  512.0      0.001953    419.71811     472.96988
  464.0      0.002155    420.08527     475.50964
  478.0      0.002092    420.45264     478.54849
  448.0      0.002232    420.81976     482.14529
  516.0      0.001938    421.18719     486.36627
  475.0      0.002105    421.55460     491.28592
  504.0      0.001984    421.92188     496.98843
  484.0      0.002066    422.28949     503.57013
  504.0      0.001984    422.65683     511.14365
  446.0      0.002242    423.02438     519.43933
  547.0      0.001828    423.39178     529.43414
  541.0      0.001848    423.75934     540.92206
  566.0      0.001767    424.12683     554.15649
  603.0      0.001658    424.49448     569.51514
  538.0      0.001859    424.86185     587.26965
  603.0      0.001658    425.22928     607.96057
  652.0      0.001534    425.59692     632.16882
  673.0      0.001486    425.96436     660.57874
  793.0      0.001261    426.33188     693.96954
  782.0      0.001279    426.69925     733.18750
  824.0      0.001214    427.06674     779.09802
  927.0      0.001079    427.43411     832.51648
  988.0      0.001012    427.80142     894.11591
  1099.0     0.000910    428.16885     964.31335
  1212.0     0.000825    428.53607     1043.12988
  1222.0     0.000818    428.90338     1130.03210
  1364.0     0.000733    429.27057     1223.76111
  1448.0     0.000691    429.63766     1322.17004
  1617.0     0.000618    430.00479     1422.09155
  1651.0     0.000606    430.37189     1519.29797
  1779.0     0.000562    430.73874     1608.59802
  1805.0     0.000554    431.10565     1684.41211
  1920.0     0.000521    431.47253     1739.93091
  1938.0     0.000516    431.83926     1769.67017
  2023.0     0.000494    432.20593     1769.29749
  1828.0     0.000547    432.57242     1732.89893
  1845.0     0.000542    432.93903     1671.40674
  1653.0     0.000605    433.30527     1585.78015
  1586.0     0.000631    433.67163     1485.41675
  1461.0     0.000684    434.03778     1374.23669
  1289.0     0.000776    434.40384     1260.92578
  1215.0     0.000823    434.76984     1150.92163
  1073.0     0.000932    435.13568     1048.20056
  931.0      0.001074    435.50146     955.43506
  892.0      0.001121    435.86703     874.20868
  872.0      0.001147    436.23260     805.23206
  755.0      0.001325    436.59793     748.55139
  727.0      0.001376    436.96310     703.75305
  672.0      0.001488    437.32819     670.15607
  690.0      0.001449    437.69312     646.98230
  632.0      0.001582    438.05798     633.48956
  663.0      0.001508    438.42255     629.04980
  684.0      0.001462    438.78711     633.16827
  627.0      0.001595    439.15137     645.53339
  675.0      0.001481    439.51559     665.51263
  690.0      0.001449    439.87955     692.58466
  765.0      0.001307    440.24329     725.77484
  716.0      0.001397    440.60703     763.59186
  745.0      0.001342    440.97043     803.92651
  838.0      0.001193    441.33380     844.05945
  783.0      0.001277    441.69681     880.81116
  879.0      0.001138    442.05984     910.83197
  852.0      0.001174    442.42249     930.97119
  836.0      0.001196    442.78506     938.69214
  838.0      0.001193    443.14728     932.53668
  742.0      0.001348    443.50931     912.56366
  824.0      0.001214    443.87131     880.48077
  724.0      0.001381    444.23285     839.30280
  695.0      0.001439    444.59442     792.70819
  765.0      0.001307    444.95560     744.40070
  654.0      0.001529    445.31668     698.98773
  756.0      0.001323    445.67734     656.37103
  684.0      0.001462    446.03787     619.49872
  666.0      0.001502    446.39825     589.18341
  648.0      0.001543    446.75824     565.50262
  618.0      0.001618    447.11810     547.98560
  639.0      0.001565    447.47766     535.82385
  638.0      0.001567    447.83691     528.06311
  630.0      0.001587    448.19586     523.75177
  621.0      0.001610    448.55475     522.03790
  602.0      0.001661    448.91324     522.21277
  647.0      0.001546    449.27133     523.72101
  635.0      0.001575    449.62939     526.14551
  649.0      0.001541    449.98700     529.18140
  627.0      0.001595    450.34448     532.61023
  614.0      0.001629    450.70154     536.27649
  642.0      0.001558    451.05844     540.07324
  651.0      0.001536    451.41498     543.93207
  680.0      0.001471    451.77124     547.82397
  680.0      0.001471    452.12708     551.76300
  670.0      0.001493    452.48264     555.81720
  605.0      0.001653    452.83804     560.11957
  621.0      0.001610    453.19296     564.87726
  694.0      0.001441    453.54770     570.37543
  653.0      0.001531    453.90204     576.96869
  727.0      0.001376    454.25610     584.83258
  741.0      0.001350    454.60977     596.30072
  712.0      0.001404    454.96307     608.73547
  739.0      0.001353    455.31622     623.78003
  792.0      0.001263    455.66873     641.56714
  711.0      0.001406    456.02118     662.00110
  815.0      0.001227    456.37317     684.70245
  800.0      0.001250    456.72488     708.98218
  851.0      0.001175    457.07605     733.84717
  895.0      0.001117    457.42703     757.32318
  867.0      0.001153    457.77756     779.45587
  878.0      0.001139    458.12769     797.96655
  919.0      0.001088    458.47763     811.53418
  841.0      0.001189    458.82706     819.18451
  858.0      0.001166    459.17615     820.63599
  853.0      0.001172    459.52478     816.60815
  771.0      0.001297    459.87311     808.90002
  769.0      0.001300    460.22098     800.07471
  698.0      0.001433    460.56870     792.87744
  607.0      0.001647    460.91571     789.64026
  693.0      0.001443    461.26224     791.83020
  620.0      0.001613    461.60873     799.77283
  678.0      0.001475    461.95456     812.55054
  699.0      0.001431    462.30008     828.09625
  643.0      0.001555    462.64514     843.48505
  642.0      0.001558    462.98987     855.38416
  680.0      0.001471    463.33405     860.58374
  584.0      0.001712    463.67786     856.57147
  684.0      0.001462    464.02127     842.08630
  699.0      0.001431    464.36420     817.44604
  619.0      0.001616    464.70670     784.44086
  666.0      0.001502    465.04874     745.84009
  580.0      0.001724    465.39050     704.78003
  580.0      0.001724    465.73157     664.23627
  637.0      0.001570    466.07239     626.65411
  527.0      0.001898    466.41254     593.73688
  522.0      0.001916    466.75238     566.39044
  507.0      0.001972    467.09177     544.79462
  497.0      0.002012    467.43051     528.60730
  462.0      0.002165    467.76898     517.01044
  444.0      0.002252    468.10690     509.13852
  472.0      0.002119    468.44443     504.08154
  513.0      0.001949    468.78140     501.02548
  366.0      0.002732    469.11795     499.30322
  474.0      0.002110    469.45389     498.40439
  513.0      0.001949    469.78934     497.96158
  467.0      0.002141    470.12445     497.72427
  464.0      0.002155    470.45898     497.53223
  419.0      0.002387    470.79297     497.29276
  480.0      0.002083    471.12640     496.96375
  407.0      0.002457    471.45959     496.54010
  404.0      0.002475    471.79199     496.04462
  548.0      0.001825    472.12393     495.51941
  444.0      0.002252    472.45547     495.02014
  486.0      0.002058    472.78632     494.60971
  459.0      0.002179    473.11685     494.35684
  482.0      0.002075    473.44662     494.25372
  476.0      0.002101    473.77609     494.52670
  426.0      0.002347    474.10486     495.16327
  450.0      0.002222    474.43323     496.22372
  425.0      0.002353    474.76093     497.75684
  527.0      0.001898    475.08810     499.79495
  383.0      0.002611    475.41483     502.34866
  536.0      0.001866    475.74088     505.49084
  436.0      0.002294    476.06638     508.98938
  448.0      0.002232    476.39139     512.84668
  475.0      0.002105    476.71591     518.33777
  380.0      0.002632    477.03964     522.63055
  499.0      0.002004    477.36307     526.73462
  441.0      0.002268    477.68567     530.52966
  451.0      0.002217    478.00778     533.80872
  421.0      0.002375    478.32941     536.37665
  475.0      0.002105    478.65033     538.06494
  390.0      0.002564    478.97079     538.75049
  467.0      0.002141    479.29056     538.36731
  402.0      0.002488    479.60989     536.91602
  446.0      0.002242    479.92847     534.46820
  432.0      0.002315    480.24646     531.16724
  461.0      0.002169    480.56387     527.22150
  487.0      0.002053    480.88071     522.88452
  499.0      0.002004    481.19696     518.42450
  428.0      0.002336    481.51254     514.09082
  471.0      0.002123    481.82761     510.17285
  454.0      0.002203    482.14197     506.66098
  482.0      0.002075    482.45587     503.72913
  482.0      0.002075    482.76889     501.55807
  472.0      0.002119    483.08142     499.85703
  524.0      0.001908    483.39337     498.71692
  447.0      0.002237    483.70456     498.06784
  452.0      0.002212    484.01529     497.82956
  470.0      0.002128    484.32526     499.48502
  479.0      0.002088    484.63467     499.88461
  424.0      0.002358    484.94336     500.46964
  418.0      0.002392    485.25150     501.18304
  477.0      0.002096    485.55887     501.97818
  486.0      0.002058    485.86554     502.82385
  469.0      0.002132    486.17169     503.68100
  492.0      0.002033    486.47714     504.53375
  419.0      0.002387    486.78198     505.36816
  518.0      0.001931    487.08606     508.58627
  439.0      0.002278    487.38965     509.46155
  534.0      0.001873    487.69232     510.32086
  400.0      0.002500    487.99451     511.17435
  521.0      0.001919    488.29605     512.03680
  506.0      0.001976    488.59677     512.93011
  511.0      0.001957    488.89691     513.88721
  513.0      0.001949    489.19626     514.95569
  470.0      0.002128    489.49509     516.20380
  424.0      0.002358    489.79312     517.72272
  443.0      0.002257    490.09052     519.62836
  447.0      0.002237    490.38712     522.05640
  452.0      0.002212    490.68301     525.15332
  485.0      0.002062    490.97839     529.06097
  565.0      0.001770    491.27283     533.89587
  488.0      0.002049    491.56680     539.72772
  537.0      0.001862    491.85989     546.56152
  530.0      0.001887    492.15240     554.32892
  502.0      0.001992    492.44406     561.56903
  553.0      0.001808    492.73520     570.76782
  448.0      0.002232    493.02545     580.40363
  584.0      0.001712    493.31494     590.35333
  529.0      0.001890    493.60391     600.61157
  545.0      0.001835    493.89197     611.34253
  500.0      0.002000    494.17944     622.91815
  574.0      0.001742    494.46606     635.93433
  615.0      0.001626    494.75204     651.19629
  545.0      0.001835    495.03723     669.65344
  604.0      0.001656    495.32169     692.28497
  571.0      0.001751    495.60553     719.96429
  617.0      0.001621    495.88846     753.32965
  688.0      0.001453    496.17072     792.67926
  761.0      0.001314    496.45218     837.88312
  831.0      0.001203    496.73297     888.32452
  843.0      0.001186    497.01297     942.87543
  1018.0     0.000982    497.29230     999.92480
  1006.0     0.000994    497.57074     1057.46899
  1138.0     0.000879    497.84842     1113.28174
  1236.0     0.000809    498.12540     1165.18274
  1276.0     0.000784    498.40158     1211.69165
  1388.0     0.000720    498.67703     1250.96472
  1325.0     0.000755    498.95169     1282.74158
  1464.0     0.000683    499.22562     1306.90381
  1382.0     0.000724    499.49866     1323.55334
  1406.0     0.000711    499.77112     1332.91504
  1294.0     0.000773    500.04260     1334.97632
  1249.0     0.000801    500.31339     1331.39807
  1273.0     0.000786    500.58347     1322.77295
  1119.0     0.000894    500.85260     1310.11694
  1226.0     0.000816    501.12115     1294.03687
  1117.0     0.000895    501.38867     1274.49695
  1148.0     0.000871    501.65561     1250.82751
  1046.0     0.000956    501.92169     1221.87805
  990.0      0.001010    502.18686     1186.79553
  1021.0     0.000979    502.45139     1145.09753
  980.0      0.001020    502.71503     1097.46899
  890.0      0.001124    502.97800     1045.68567
  939.0      0.001065    503.24005     992.15704
  940.0      0.001064    503.50131     939.31696
  837.0      0.001195    503.76172     889.17462
  854.0      0.001171    504.02136     843.11981
  742.0      0.001348    504.28021     801.90753
  705.0      0.001418    504.53818     765.73853
  708.0      0.001412    504.79538     734.37537
  576.0      0.001736    505.05173     707.28381
  695.0      0.001439    505.30737     683.78741
  589.0      0.001698    505.56216     663.22253
  651.0      0.001536    505.81607     645.04858
  513.0      0.001949    506.06906     628.88428
  614.0      0.001629    506.32144     614.48553
  550.0      0.001818    506.57275     601.70142
  526.0      0.001901    506.82339     590.43445
  572.0      0.001748    507.07321     580.60699
  506.0      0.001976    507.32214     572.13733
  491.0      0.002037    507.57034     564.92596
  510.0      0.001961    507.81750     558.84943
  561.0      0.001783    508.06400     553.76648
  469.0      0.002132    508.30951     549.52606
  538.0      0.001859    508.55423     545.98071
  501.0      0.001996    508.79822     542.99561
  488.0      0.002049    509.04120     540.45569
  496.0      0.002016    509.28351     538.26953
  497.0      0.002012    509.52475     536.36743
  541.0      0.001848    509.76529     534.69958
  430.0      0.002326    510.00494     533.23077
  498.0      0.002008    510.24377     531.93738
  456.0      0.002193    510.48172     530.80261
  481.0      0.002079    510.71869     529.81427
  492.0      0.002033    510.95496     528.96228
  566.0      0.001767    511.19031     528.23785
  550.0      0.001818    511.42480     527.63324
  571.0      0.001751    511.65845     527.14026
  535.0      0.001869    511.89124     526.75153
  468.0      0.002137    512.12311     526.45978
  524.0      0.001908    512.35413     526.25885
  501.0      0.001996    512.58435     526.14197
  515.0      0.001942    512.81360     526.10443
  498.0      0.002008    513.04199     526.14197
  430.0      0.002326    513.26947     526.25079
  522.0      0.001916    513.49615     526.42828
  471.0      0.002123    513.72198     526.67224
  528.0      0.001894    513.94696     526.98169
  537.0      0.001862    514.17090     527.35535
  480.0      0.002083    514.39398     527.79358
  561.0      0.001783    514.61633     528.29596
  510.0      0.001961    514.83765     528.86273
  487.0      0.002053    515.05823     529.49396
  507.0      0.001972    515.27777     530.18945
  540.0      0.001852    515.49646     533.35052
  455.0      0.002198    515.71423     534.20984
  506.0      0.001976    515.93127     535.13123
  534.0      0.001873    516.14728     536.11127
  510.0      0.001961    516.36237     537.14594
  541.0      0.001848    516.57666     538.22931
  506.0      0.001976    516.79004     539.35327
  577.0      0.001733    517.00250     540.50873
  505.0      0.001980    517.21405     541.68433
  511.0      0.001957    517.42474     542.86731
  475.0      0.002105    517.63446     544.04358
  541.0      0.001848    517.84338     545.20026
  394.0      0.002538    518.05133     546.32501
  586.0      0.001706    518.25830     547.40961
  461.0      0.002169    518.46448     548.45038
  484.0      0.002066    518.66974     549.45087
  499.0      0.002004    518.87408     550.42358
  491.0      0.002037    519.07751     551.39075
  529.0      0.001890    519.28003     552.38416
  497.0      0.002012    519.48169     553.44464
  483.0      0.002070    519.68237     554.61926
  506.0      0.001976    519.88208     555.95886
  525.0      0.001905    520.08105     557.51215
  492.0      0.002033    520.27893     560.93439
  560.0      0.001786    520.47601     563.09412
  443.0      0.002257    520.67218     565.56226
  532.0      0.001880    520.86737     568.33331
  553.0      0.001808    521.06177     571.37323
  484.0      0.002066    521.25507     574.61969
  501.0      0.001996    521.44745     577.98004
  554.0      0.001805    521.63916     581.33386
  455.0      0.002198    521.82971     584.53796
  544.0      0.001838    522.01941     587.43652
  518.0      0.001931    522.20825     589.87079
  467.0      0.002141    522.39624     591.69238
  560.0      0.001786    522.58307     592.77679
  530.0      0.001887    522.76917     593.03461
  539.0      0.001855    522.95416     591.61719
  540.0      0.001852    523.13824     590.15631
  537.0      0.001862    523.32166     587.88983
  524.0      0.001908    523.50397     584.92407
  612.0      0.001634    523.68536     581.40521
  572.0      0.001748    523.86584     580.90326
  590.0      0.001695    524.04535     576.93616
  552.0      0.001812    524.22394     572.96094
  612.0      0.001634    524.40167     571.51160
  485.0      0.002062    524.57837     568.19159
  590.0      0.001695    524.75415     565.31921
  593.0      0.001686    524.92920     562.99432
  599.0      0.001669    525.10309     561.30402
  647.0      0.001546    525.27612     560.34357
  553.0      0.001808    525.44812     560.24219
  660.0      0.001515    525.61932     561.20251
  574.0      0.001742    525.78961     563.54700
  665.0      0.001504    525.95892     567.77582
  574.0      0.001742    526.12732     574.62726
  656.0      0.001524    526.29474     585.13306
  651.0      0.001536    526.46118     600.65625
  755.0      0.001325    526.62671     622.88794
  738.0      0.001355    526.79150     653.78241
  763.0      0.001311    526.95520     695.40924
  912.0      0.001096    527.11792     749.71173
  902.0      0.001109    527.27966     818.18042
  1097.0     0.000912    527.44061     901.47266
  1127.0     0.000887    527.60059     999.04559
  1273.0     0.000786    527.75958     1108.85071
  1450.0     0.000690    527.91772     1227.32861
  1674.0     0.000597    528.07477     1349.16870
  1818.0     0.000550    528.23108     1468.25549
  2033.0     0.000492    528.38635     1577.96191
  2204.0     0.000454    528.54059     1672.03955
  2342.0     0.000427    528.69403     1745.48254
  2448.0     0.000408    528.84650     1795.33716
  2523.0     0.000396    528.99799     1821.18958
  2537.0     0.000394    529.14856     1825.08240
  2617.0     0.000382    529.29822     1810.91174
  2483.0     0.000403    529.44690     1783.63000
  2417.0     0.000414    529.59467     1748.53271
  2351.0     0.000425    529.74152     1710.73743
  2363.0     0.000423    529.88733     1674.85999
  2292.0     0.000436    530.03241     1644.82800
  2338.0     0.000428    530.17633     1623.73376
  2252.0     0.000444    530.31940     1613.66406
  2250.0     0.000444    530.46161     1615.49048
  2223.0     0.000450    530.60278     1628.71106
  2213.0     0.000452    530.74298     1651.40686
  2258.0     0.000443    530.88245     1680.93262
  2271.0     0.000440    531.02063     1712.05908
  2282.0     0.000438    531.15814     1740.69971
  2306.0     0.000434    531.29474     1762.31165
  2179.0     0.000459    531.43024     1772.93176
  2202.0     0.000454    531.56488     1769.59668
  2145.0     0.000466    531.69867     1750.33643
  2122.0     0.000471    531.83136     1714.46533
  2104.0     0.000475    531.96320     1662.28857
  1872.0     0.000534    532.09393     1595.09619
  1779.0     0.000562    532.22400     1515.24023
  1632.0     0.000613    532.35303     1426.17993
  1486.0     0.000673    532.48114     1332.19543
  1344.0     0.000744    532.60822     1237.73364
  1294.0     0.000773    532.73450     1146.72229
  1158.0     0.000864    532.85974     1062.16223
  1129.0     0.000886    532.98413     986.06982
  1026.0     0.000975    533.10736     919.61536
  989.0      0.001011    533.22998     863.31561
  997.0      0.001003    533.35138     817.19855
  859.0      0.001164    533.47211     780.92957
  864.0      0.001157    533.59174     753.91217
  954.0      0.001048    533.71057     735.37640
  857.0      0.001167    533.82837     724.46173
  941.0      0.001063    533.94525     720.29138
  912.0      0.001096    534.06110     722.03326
  921.0      0.001086    534.17615     728.94055
  918.0      0.001089    534.29028     740.37683
  896.0      0.001116    534.40338     755.81464
  927.0      0.001079    534.51556     774.82428
  891.0      0.001122    534.62695     797.04993
  879.0      0.001138    534.73730     822.17957
  903.0      0.001107    534.84680     849.91388
  896.0      0.001116    534.95514     879.93353
  987.0      0.001013    535.06281     911.87543
  843.0      0.001186    535.16949     945.30743
  901.0      0.001110    535.27521     979.71021
  892.0      0.001121    535.38000     1015.00763
  882.0      0.001134    535.48395     1049.41821
  873.0      0.001145    535.58691     1082.65894
  954.0      0.001048    535.68884     1113.85229
  945.0      0.001058    535.79004     1142.08716
  988.0      0.001012    535.89020     1166.47205
  1078.0     0.000928    535.98950     1186.20813
  946.0      0.001057    536.08795     1200.67065
  1074.0     0.000931    536.18530     1209.49231
  1048.0     0.000954    536.28192     1212.61304
  1023.0     0.000978    536.37744     1210.27563
  1006.0     0.000994    536.47211     1203.13110
  1088.0     0.000919    536.56598     1195.56067
  1050.0     0.000952    536.65887     1180.01636
  1157.0     0.000864    536.75061     1161.18628
  1071.0     0.000934    536.84174     1139.16125
  1087.0     0.000920    536.93188     1114.02222
  1110.0     0.000901    537.02100     1085.81262
  1095.0     0.000913    537.10938     1054.66846
  1035.0     0.000966    537.19666     1020.89514
  1050.0     0.000952    537.28326     984.99072
  1059.0     0.000944    537.36871     947.61316
  1034.0     0.000967    537.45343     909.57202
  1024.0     0.000977    537.53717     871.79144
  977.0      0.001024    537.61993     835.27057
  953.0      0.001049    537.70190     802.19476
  948.0      0.001055    537.78296     771.30518
  925.0      0.001081    537.86316     744.57465
  933.0      0.001072    537.94226     722.79865
  930.0      0.001075    538.02075     706.30969
  892.0      0.001121    538.09814     696.63403
  929.0      0.001076    538.17468     694.18756
  902.0      0.001109    538.25037     699.96002
  872.0      0.001147    538.32489     715.16705
  899.0      0.001112    538.39886     741.40002
  890.0      0.001124    538.47168     779.91669
  995.0      0.001005    538.54370     832.37781
  982.0      0.001018    538.61499     901.69873
  1088.0     0.000919    538.68512     984.98340
  1165.0     0.000858    538.75470     1083.40161
  1173.0     0.000853    538.82306     1195.10461
  1371.0     0.000729    538.89056     1316.78345
  1417.0     0.000706    538.95740     1443.66931
  1609.0     0.000622    539.02319     1569.81250
  1758.0     0.000569    539.08813     1688.58484
  1847.0     0.000541    539.15216     1793.35437
  2008.0     0.000498    539.21527     1878.23511
  2188.0     0.000457    539.27765     1938.78723
  2146.0     0.000466    539.33905     1972.55798
  2276.0     0.000439    539.39954     1979.36829
  2345.0     0.000426    539.45923     1963.19495
  2351.0     0.000425    539.51794     1924.96326
  2162.0     0.000463    539.57587     1871.27283
  2015.0     0.000496    539.63281     1809.25269
  1947.0     0.000514    539.68903     1745.65198
  1894.0     0.000528    539.74432     1686.52576
  1806.0     0.000554    539.79871     1636.61548
  1777.0     0.000563    539.85229     1598.95618
  1721.0     0.000581    539.90491     1574.70581
  1850.0     0.000541    539.95673     1563.14832
  1875.0     0.000533    540.00769     1561.85571
  1917.0     0.000522    540.05780     1566.98730
  1963.0     0.000509    540.10706     1573.72009
  1917.0     0.000522    540.15533     1576.80652
  1988.0     0.000503    540.20276     1571.24512
  1941.0     0.000515    540.24939     1553.06323
  1893.0     0.000528    540.29535     1520.08313
  1901.0     0.000526    540.34015     1472.36572
  1839.0     0.000544    540.38440     1412.03357
  1647.0     0.000607    540.42761     1342.55603
  1621.0     0.000617    540.46985     1267.91016
  1384.0     0.000723    540.51129     1191.97925
  1335.0     0.000749    540.55212     1118.27466
  1224.0     0.000817    540.59192     1049.85205
  1101.0     0.000908    540.63080     989.28937
  1128.0     0.000887    540.66901     938.66394
  1028.0     0.000973    540.70636     899.53064
  1056.0     0.000947    540.74274     872.92719
  1027.0     0.000974    540.77844     859.40082
  1080.0     0.000926    540.81317     859.03864
  1034.0     0.000967    540.84705     871.48132
  1048.0     0.000954    540.88025     895.90735
  1088.0     0.000919    540.91248     930.99255
  1097.0     0.000912    540.94391     974.86328
  1144.0     0.000874    540.97455     1025.06226
  1138.0     0.000879    541.00433     1078.55432
  1204.0     0.000831    541.03333     1131.80078
  1258.0     0.000795    541.06146     1180.92566
  1232.0     0.000812    541.08868     1221.98828
  1223.0     0.000818    541.11523     1251.36218
  1232.0     0.000812    541.14081     1266.21680
  1208.0     0.000828    541.16565     1265.02466
  1198.0     0.000835    541.18982     1247.90356
  1127.0     0.000887    541.21307     1216.56628
  1085.0     0.000922    541.23529     1173.87415
  1000.0     0.001000    541.25714     1123.22681
  853.0      0.001172    541.27777     1068.04248
  845.0      0.001183    541.29767     1011.42249
  776.0      0.001289    541.31702     955.96503
  742.0      0.001348    541.33533     903.67633
  676.0      0.001479    541.35278     855.94128
  633.0      0.001580    541.36957     813.54565
  626.0      0.001597    541.38562     776.75452
  566.0      0.001767    541.40070     745.38318
  573.0      0.001745    541.41504     713.76318
  559.0      0.001789    541.42853     691.74591
  548.0      0.001825    541.44147     673.33154
  540.0      0.001852    541.45337     657.85095
  606.0      0.001650    541.46442     644.71777
  548.0      0.001825    541.47485     633.45325
  535.0      0.001869    541.48456     623.68640
  582.0      0.001718    541.49335     617.41443
  492.0      0.002033    541.50140     609.94769
  536.0      0.001866    541.50867     603.38635
  507.0      0.001972    541.51520     597.64752
  489.0      0.002045    541.52081     592.67712
  534.0      0.001873    541.52582     588.43726
  524.0      0.001908    541.52997     584.89832
  542.0      0.001845    541.53333     582.02960
  539.0      0.001855    541.53595     579.79901
  494.0      0.002024    541.53790     578.17004
  523.0      0.001912    541.53900     577.10449
  524.0      0.001908    541.53918     576.56281
  489.0      0.002045    541.53882     576.50519
  596.0      0.001678    541.53760     576.49310
  485.0      0.002062    541.53564     577.30542
  546.0      0.001832    541.53296     578.50049
  552.0      0.001812    541.52942     580.05170
  522.0      0.001916    541.52515     581.93463
  534.0      0.001873    541.52026     584.12555
  543.0      0.001842    541.51440     586.60107
  542.0      0.001845    541.50787     589.33215
  579.0      0.001727    541.50085     592.28491
  513.0      0.001949    541.49274     595.41626
  588.0      0.001701    541.48407     598.67102
  513.0      0.001949    541.47455     601.98169
  492.0      0.002033    541.46448     605.26617
  537.0      0.001862    541.45355     608.42957
  581.0      0.001721    541.44183     615.71344
  537.0      0.001862    541.42944     618.69458
  534.0      0.001873    541.41632     621.31354
  529.0      0.001890    541.40240     622.96582
  608.0      0.001645    541.38800     624.76141
  616.0      0.001623    541.37262     626.19617
  630.0      0.001587    541.35657     627.42291
  550.0      0.001818    541.33984     628.70459
  562.0      0.001779    541.32227     630.43640
  609.0      0.001642    541.30414     633.16449
  574.0      0.001742    541.28522     637.59851
  630.0      0.001587    541.26569     644.61096
  649.0      0.001541    541.24530     655.21521
  683.0      0.001464    541.22430     670.50848
  696.0      0.001437    541.20251     691.57245
  730.0      0.001370    541.18005     719.33392
  828.0      0.001208    541.15692     754.38312
  778.0      0.001285    541.13312     796.77972
  898.0      0.001114    541.10858     845.86829
  897.0      0.001115    541.08337     900.14197
  984.0      0.001016    541.05743     957.19354
  939.0      0.001065    541.03082     1013.78638
  941.0      0.001063    541.00348     1066.06836
  1066.0     0.000938    540.97528     1109.92822
  1065.0     0.000939    540.94678     1141.47131
  1003.0     0.000997    540.91730     1157.56677
  1040.0     0.000962    540.88727     1156.42480
  979.0      0.001021    540.85663     1138.04297
  1019.0     0.000981    540.82507     1104.28430
  895.0      0.001117    540.79303     1058.47913
  880.0      0.001136    540.76025     1004.74731
  813.0      0.001230    540.72693     951.35852
  839.0      0.001192    540.69269     894.49670
  866.0      0.001155    540.65790     841.09985
  835.0      0.001198    540.62256     793.53918
  781.0      0.001280    540.58630     753.30676
  750.0      0.001333    540.54968     721.09442
  811.0      0.001233    540.51202     696.95392
  764.0      0.001309    540.47394     680.51135
  772.0      0.001295    540.43530     672.59222
  799.0      0.001252    540.39575     669.85291
  785.0      0.001274    540.35577     673.25952
  797.0      0.001255    540.31500     682.63281
  913.0      0.001095    540.27374     698.09674
  818.0      0.001222    540.23187     720.01086
  903.0      0.001107    540.18915     748.87842
  948.0      0.001055    540.14575     785.19904
  923.0      0.001083    540.10175     829.28253
  1020.0     0.000980    540.05725     881.05048
  1072.0     0.000933    540.01215     939.85101
  1205.0     0.000830    539.96619     1004.32123
  1100.0     0.000909    539.91980     1072.32837
  1350.0     0.000741    539.87268     1141.01672
  1240.0     0.000806    539.82495     1206.98230
  1363.0     0.000734    539.77655     1266.57690
  1346.0     0.000743    539.72766     1316.31580
  1400.0     0.000714    539.67804     1353.35901
  1399.0     0.000715    539.62775     1376.01941
  1329.0     0.000752    539.57703     1384.17017
  1487.0     0.000672    539.52563     1379.33789
  1362.0     0.000734    539.47351     1364.37219
  1380.0     0.000725    539.42084     1345.71362
  1355.0     0.000738    539.36755     1321.44507
  1297.0     0.000771    539.31372     1297.70313
  1302.0     0.000768    539.25922     1277.24805
  1356.0     0.000737    539.20410     1262.06982
  1248.0     0.000801    539.14844     1253.35205
  1318.0     0.000759    539.09216     1251.53345
  1286.0     0.000778    539.03516     1256.43823
  1258.0     0.000795    538.97766     1267.44153
  1270.0     0.000787    538.91968     1283.63159
  1278.0     0.000782    538.86115     1303.94153
  1306.0     0.000766    538.80176     1327.23279
  1220.0     0.000820    538.74200     1352.33264
  1332.0     0.000751    538.68152     1378.03455
  1259.0     0.000794    538.62054     1403.08398
  1270.0     0.000787    538.55896     1426.16504
  1304.0     0.000767    538.49689     1445.90320
  1242.0     0.000805    538.43414     1460.89539
  1278.0     0.000782    538.37079     1469.77307
  1304.0     0.000767    538.30695     1471.30298
  1250.0     0.000800    538.24243     1464.51978
  1350.0     0.000741    538.17743     1448.87109
  1382.0     0.000724    538.11200     1424.33826
  1358.0     0.000736    538.04584     1391.48413
  1226.0     0.000816    537.97913     1351.86230
  1340.0     0.000746    537.91168     1305.97656
  1298.0     0.000770    537.84412     1255.93640
  1329.0     0.000752    537.77576     1203.41846
  1294.0     0.000773    537.70679     1153.79846
  1216.0     0.000822    537.63727     1101.28381
  1303.0     0.000767    537.56720     1050.70544
  1231.0     0.000812    537.49670     1003.27179
  1206.0     0.000829    537.42566     960.13367
  1237.0     0.000808    537.35394     922.45313
  1245.0     0.000803    537.28174     891.47650
  1256.0     0.000796    537.20905     869.43982
  1227.0     0.000815    537.13599     856.32751
  1244.0     0.000804    537.06201     854.75256
  1216.0     0.000822    536.98761     865.67419
  1286.0     0.000778    536.91278     893.16559
  1204.0     0.000831    536.83752     938.01349
  1376.0     0.000727    536.76160     1001.55981
  1356.0     0.000737    536.68512     1084.31860
  1470.0     0.000680    536.60815     1185.63220
  1558.0     0.000642    536.53064     1303.38977
  1563.0     0.000640    536.45270     1433.87549
  1699.0     0.000589    536.37402     1571.79431
  1727.0     0.000579    536.29510     1710.49976
  1818.0     0.000550    536.21558     1842.40747
  1942.0     0.000515    536.13550     1959.56421
  2002.0     0.000500    536.05493     2054.31030
  2065.0     0.000484    535.97400     2119.98340
  2061.0     0.000485    535.89240     2151.61353
  2165.0     0.000462    535.81030     2147.65234
  2070.0     0.000483    535.72766     2106.14624
  2157.0     0.000464    535.64465     2031.38892
  2079.0     0.000481    535.56110     1929.44055
  1984.0     0.000504    535.47711     1808.27795
  1918.0     0.000521    535.39258     1676.54797
  1843.0     0.000543    535.30743     1542.40881
  1712.0     0.000584    535.22186     1412.75232
  1548.0     0.000646    535.13599     1292.83716
  1420.0     0.000704    535.04938     1186.21997
  1299.0     0.000770    534.96240     1094.89148
  1272.0     0.000786    534.87500     1019.53687
  1107.0     0.000903    534.78711     959.83392
  1087.0     0.000920    534.69867     914.72931
  1055.0     0.000948    534.60980     882.67053
  952.0      0.001050    534.52051     861.80145
  1071.0     0.000934    534.43066     850.13269
  881.0      0.001135    534.34027     845.68201
  906.0      0.001104    534.24951     846.58569
  856.0      0.001168    534.15833     851.18890
  855.0      0.001170    534.06665     858.12762
  862.0      0.001160    533.97443     866.41022
  886.0      0.001129    533.88190     875.48120
  816.0      0.001225    533.78894     885.21765
  849.0      0.001178    533.69531     895.83447
  771.0      0.001297    533.60138     908.40613
  836.0      0.001196    533.50684     921.98956
  837.0      0.001195    533.41205     937.49707
  778.0      0.001285    533.31677     954.95660
  845.0      0.001183    533.22101     974.09937
  901.0      0.001110    533.12476     994.32446
  827.0      0.001209    533.02802     1014.69904
  847.0      0.001181    532.93091     1033.99866
  901.0      0.001110    532.83350     1050.79163
  810.0      0.001235    532.73547     1063.56580
  841.0      0.001189    532.63696     1070.87891
  870.0      0.001149    532.53821     1071.52014
  909.0      0.001100    532.43896     1064.66528
  905.0      0.001105    532.33917     1050.01489
  929.0      0.001076    532.23914     1027.89490
  859.0      0.001164    532.13861     999.26245
  838.0      0.001193    532.03760     965.57196
  777.0      0.001287    531.93610     928.54858
  864.0      0.001157    531.83447     889.95605
  837.0      0.001195    531.73212     851.53619
  825.0      0.001212    531.62946     814.54938
  783.0      0.001277    531.52637     780.14148
  764.0      0.001309    531.42297     749.22888
  804.0      0.001244    531.31903     722.40808
  749.0      0.001335    531.21484     700.27435
  776.0      0.001289    531.10999     682.51440
  806.0      0.001241    531.00488     669.34595
  757.0      0.001321    530.89935     660.62872
  786.0      0.001272    530.79352     656.11584
  760.0      0.001316    530.68713     655.46350
  774.0      0.001292    530.58051     658.23126
  805.0      0.001242    530.47339     663.87750
  786.0      0.001272    530.36566     671.75452
  816.0      0.001225    530.25793     681.11072
  832.0      0.001202    530.14954     691.10608
  810.0      0.001235    530.04083     700.84485
  830.0      0.001205    529.93176     709.42859
  865.0      0.001156    529.82227     716.03058
  858.0      0.001166    529.71252     719.99115
  783.0      0.001277    529.60223     720.90930
  821.0      0.001218    529.49164     718.69049
  735.0      0.001361    529.38049     713.51355
  719.0      0.001391    529.26917     705.73987
  731.0      0.001368    529.15741     695.82043
  744.0      0.001344    529.04529     684.24255
  611.0      0.001637    528.93280     671.50970
  595.0      0.001681    528.81976     658.13885
  636.0      0.001572    528.70673     644.65674
  644.0      0.001553    528.59290     631.58691
  511.0      0.001957    528.47894     613.69623
  574.0      0.001742    528.36444     602.98669
  605.0      0.001653    528.24994     593.98926
  556.0      0.001799    528.13470     586.95691
  599.0      0.001669    528.01941     582.01837
  637.0      0.001570    527.90356     579.17401
  606.0      0.001650    527.78735     578.29974
  502.0      0.001992    527.67090     579.16449
  681.0      0.001468    527.55383     581.53705
  536.0      0.001866    527.43671     584.87378
  577.0      0.001733    527.31903     588.85388
  554.0      0.001805    527.20111     593.07520
  597.0      0.001675    527.08270     597.16919
  562.0      0.001779    526.96411     600.83801
  516.0      0.001938    526.84515     603.88635
  534.0      0.001873    526.72577     606.24591
  516.0      0.001938    526.60614     607.97131
  576.0      0.001736    526.48608     609.20410
  564.0      0.001773    526.36572     610.11658
  598.0      0.001672    526.24506     610.86011
  579.0      0.001727    526.12396     611.53204
  541.0      0.001848    526.00262     612.15955
  551.0      0.001815    525.88098     612.69812
  525.0      0.001905    525.75903     613.04211
  531.0      0.001883    525.63641     613.04242
  541.0      0.001848    525.51379     612.53027
  560.0      0.001786    525.39069     611.34521
  529.0      0.001890    525.26740     609.36212
  607.0      0.001647    525.14368     606.51355
  500.0      0.002000    525.01965     602.80151
  541.0      0.001848    524.89532     598.29816
  560.0      0.001786    524.77057     593.13422
  574.0      0.001742    524.64563     583.55237
  517.0      0.001934    524.52032     577.79852
  591.0      0.001692    524.39465     571.87048
  544.0      0.001838    524.26862     566.04297
  548.0      0.001825    524.14252     560.48401
  531.0      0.001883    524.01587     555.33276
  606.0      0.001650    523.88898     550.69263
  521.0      0.001919    523.76166     546.63403
  586.0      0.001706    523.63416     543.19525
  506.0      0.001976    523.50641     540.39148
  571.0      0.001751    523.37811     538.22211
  539.0      0.001855    523.24982     536.67889
  563.0      0.001776    523.12109     535.75507
  511.0      0.001957    522.99194     535.44983
  580.0      0.001724    522.86261     535.77106
  540.0      0.001852    522.73297     536.73340
  512.0      0.001953    522.60309     538.34991
  598.0      0.001672    522.47266     540.62158
  564.0      0.001773    522.34216     543.52271
  589.0      0.001698    522.21124     546.98541
  599.0      0.001669    522.08014     550.88739
  566.0      0.001767    521.94855     555.04572
  598.0      0.001672    521.81677     559.21973
  578.0      0.001730    521.68481     563.12537
  566.0      0.001767    521.55237     566.45984
  603.0      0.001658    521.41974     568.93536
  620.0      0.001613    521.28687     570.31580
  558.0      0.001792    521.15363     570.45135
  607.0      0.001647    521.02014     569.30560
  580.0      0.001724    520.88629     566.96307
  593.0      0.001686    520.75226     563.61505
  598.0      0.001672    520.61792     559.52838
  560.0      0.001786    520.48322     555.00403
  555.0      0.001802    520.34833     550.42749
  609.0      0.001642    520.21313     545.88922
  583.0      0.001715    520.07758     541.67871
  582.0      0.001718    519.94183     537.93494
  594.0      0.001684    519.80579     534.95947
  540.0      0.001852    519.66949     532.31573
  602.0      0.001661    519.53296     530.22864
  508.0      0.001969    519.39606     528.56659
  572.0      0.001748    519.25885     531.68793
  566.0      0.001767    519.12140     530.96124
  482.0      0.002075    518.98376     530.50061
  539.0      0.001855    518.84564     530.25336
  544.0      0.001838    518.70752     530.17975
  522.0      0.001916    518.56897     530.25311
  527.0      0.001898    518.43005     530.46039
  539.0      0.001855    518.29108     530.79871
  545.0      0.001835    518.15173     531.27814
  535.0      0.001869    518.01221     531.91852
  507.0      0.001972    517.87225     532.75519
  526.0      0.001901    517.73212     533.84204
  538.0      0.001859    517.59180     535.25830
  524.0      0.001908    517.45111     537.11871
  558.0      0.001792    517.31024     539.58490
  587.0      0.001704    517.16925     542.88361
  536.0      0.001866    517.02765     547.32434
  520.0      0.001923    516.88586     553.32172
  548.0      0.001825    516.74402     561.41760
  552.0      0.001812    516.60187     572.29932
  569.0      0.001757    516.45929     586.81360
  611.0      0.001637    516.31653     605.96344
  608.0      0.001645    516.17358     630.88849
  629.0      0.001590    516.03040     662.81793
  643.0      0.001555    515.88696     703.00861
  709.0      0.001410    515.74323     752.56317
  749.0      0.001335    515.59918     812.38879
  846.0      0.001182    515.45477     882.96100
  894.0      0.001119    515.31049     964.16437
  994.0      0.001006    515.16565     1055.12976
  1111.0     0.000900    515.02063     1154.10815
  1253.0     0.000798    514.87537     1258.40479
  1497.0     0.000668    514.72998     1364.80029
  1645.0     0.000608    514.58423     1468.07178
  1807.0     0.000553    514.43817     1563.57397
  1950.0     0.000513    514.29199     1646.01965
  2060.0     0.000485    514.14551     1710.29944
  2203.0     0.000454    513.99866     1752.00354
  2230.0     0.000448    513.85175     1767.99963
  2158.0     0.000463    513.70453     1756.98035
  2170.0     0.000461    513.55719     1719.77722
  2016.0     0.000496    513.40942     1659.24609
  1895.0     0.000528    513.26141     1579.73682
  1823.0     0.000549    513.11340     1486.39343
  1531.0     0.000653    512.96478     1384.52625
  1486.0     0.000673    512.81622     1279.16296
  1172.0     0.000853    512.66724     1174.74890
  1125.0     0.000889    512.51813     1074.95862
  950.0      0.001053    512.36884     982.58966
  864.0      0.001157    512.21924     899.54175
  737.0      0.001357    512.06934     826.86359
  662.0      0.001511    511.91913     764.86505
  670.0      0.001493    511.76889     713.26978
  641.0      0.001560    511.61823     671.38452
  549.0      0.001821    511.46750     638.26416
  583.0      0.001715    511.31644     612.85760
  600.0      0.001667    511.16516     594.11865
  548.0      0.001825    511.01361     581.08246
  576.0      0.001736    510.86194     572.90326
  572.0      0.001748    510.70999     568.86169
  517.0      0.001934    510.55780     568.34460
  639.0      0.001565    510.40530     570.80945
  548.0      0.001825    510.25269     575.73828
  552.0      0.001812    510.09973     582.59711
  630.0      0.001587    509.94659     590.79993
  518.0      0.001931    509.79327     599.69269
  614.0      0.001629    509.63962     608.55457
  609.0      0.001642    509.48578     616.62555
  635.0      0.001575    509.33188     623.15375
  596.0      0.001678    509.17749     627.46667
  659.0      0.001517    509.02301     629.05267
  621.0      0.001610    508.86823     627.64642
  647.0      0.001546    508.71326     623.28192
  619.0      0.001616    508.55817     616.28705
  625.0      0.001600    508.40277     607.21368
  575.0      0.001739    508.24713     596.73328
  567.0      0.001764    508.09116     585.53790
  562.0      0.001779    507.93515     574.26807
  537.0      0.001862    507.77878     563.46082
  554.0      0.001805    507.62231     553.52399
  485.0      0.002062    507.46539     544.72388
  515.0      0.001942    507.30850     537.19263
  494.0      0.002024    507.15137     530.94531
  543.0      0.001842    506.99377     525.90802
  531.0      0.001883    506.83624     521.94641
  459.0      0.002179    506.67825     518.89587
  553.0      0.001808    506.52014     516.58362
  472.0      0.002119    506.36188     514.84698
  487.0      0.002053    506.20331     513.54401
  497.0      0.002012    506.04456     512.55719
  557.0      0.001795    505.88559     511.79465
  537.0      0.001862    505.72638     511.18811
  520.0      0.001923    505.56686     510.68771
  485.0      0.002062    505.40714     510.25925
  473.0      0.002114    505.24725     509.87958
  497.0      0.002012    505.08722     509.53326
  433.0      0.002309    504.92688     509.21088
  539.0      0.001855    504.76633     508.90619
  462.0      0.002165    504.60562     508.61533
  502.0      0.001992    504.44458     508.42810
  508.0      0.001969    504.28342     508.16272
  457.0      0.002188    504.12192     507.90698
  466.0      0.002146    503.96027     507.66058
  498.0      0.002008    503.79849     507.42374
  475.0      0.002105    503.63635     507.19611
  492.0      0.002033    503.47406     506.77621
  456.0      0.002193    503.31155     506.57123
  473.0      0.002114    503.14890     506.37720
  508.0      0.001969    502.98587     506.19507
  539.0      0.001855    502.82260     506.02576
  468.0      0.002137    502.65927     505.87048
  456.0      0.002193    502.49576     505.73038
  491.0      0.002037    502.33182     505.60693
  519.0      0.001927    502.16779     505.50153
  488.0      0.002049    502.00345     505.41541
  472.0      0.002119    501.83905     505.35001
  492.0      0.002033    501.67438     505.36517
  487.0      0.002053    501.50943     505.34641
  421.0      0.002375    501.34430     505.35101
  497.0      0.002012    501.17892     505.37943
  472.0      0.002119    501.01334     505.43570
  432.0      0.002315    500.84753     505.51038
  540.0      0.001852    500.68155     505.60657
  460.0      0.002174    500.51538     505.72198
  508.0      0.001969    500.34894     505.85397
  450.0      0.002222    500.18225     507.95709
  472.0      0.002119    500.01541     508.20245
  407.0      0.002457    499.84827     508.45749
  438.0      0.002283    499.68094     508.71835
  453.0      0.002208    499.51343     508.98135
  519.0      0.001927    499.34564     509.24435
  431.0      0.002320    499.17776     509.50711
  494.0      0.002024    499.00961     509.77261
  492.0      0.002033    498.84122     510.04810
  510.0      0.001961    498.67255     510.34604
  453.0      0.002208    498.50369     510.68399
  488.0      0.002049    498.33475     512.53796
  420.0      0.002381    498.16541     513.08319
  486.0      0.002058    497.99600     513.75220
  460.0      0.002174    497.82629     514.57526
  498.0      0.002008    497.65646     515.58051
  475.0      0.002105    497.48633     516.79150
  589.0      0.001698    497.31586     518.22430
  479.0      0.002088    497.14539     519.88556
  506.0      0.001976    496.97455     521.77087
  600.0      0.001667    496.80362     523.86261
  457.0      0.002188    496.63239     526.13068
  520.0      0.001923    496.46097     528.53204
  575.0      0.001739    496.28934     531.01276
  556.0      0.001799    496.11749     533.51337
  548.0      0.001825    495.94540     535.97589
  578.0      0.001730    495.77307     538.35620
  505.0      0.001980    495.60059     540.63812
  591.0      0.001692    495.42789     544.98291
  561.0      0.001783    495.25497     547.30969
  610.0      0.001639    495.08182     549.77679
  581.0      0.001721    494.90836     552.55798
  665.0      0.001504    494.73489     555.86865
  527.0      0.001898    494.56097     559.96991
  666.0      0.001502    494.38699     565.17554
  579.0      0.001727    494.21271     571.86066
  644.0      0.001553    494.03827     580.46759
  609.0      0.001642    493.86362     591.50317
  654.0      0.001529    493.68872     605.52557
  701.0      0.001427    493.51355     623.11432
  654.0      0.001529    493.33823     644.82684
  662.0      0.001511    493.16269     671.13733
  738.0      0.001355    492.98691     702.36639
  733.0      0.001364    492.81107     738.60846
  795.0      0.001258    492.63474     779.66235
  887.0      0.001127    492.45828     824.98206
  901.0      0.001110    492.28168     873.65045
  945.0      0.001058    492.10489     924.38800
  938.0      0.001066    491.92780     975.60931
  1082.0     0.000924    491.75046     1025.48779
  1063.0     0.000941    491.57303     1072.16907
  1054.0     0.000949    491.39523     1113.97229
  1180.0     0.000847    491.21735     1149.69360
  1168.0     0.000856    491.03915     1178.92065
  1266.0     0.000790    490.86075     1202.24561
  1172.0     0.000853    490.68210     1223.80457
  1255.0     0.000797    490.50336     1240.90344
  1209.0     0.000827    490.32428     1258.26196
  1211.0     0.000826    490.14499     1277.84167
  1236.0     0.000809    489.96558     1300.85889
  1211.0     0.000826    489.78583     1327.59753
  1268.0     0.000789    489.60590     1357.36890
  1262.0     0.000792    489.42572     1388.58362
  1312.0     0.000762    489.24545     1418.93164
  1312.0     0.000762    489.06485     1445.63879
  1323.0     0.000756    488.88409     1465.98083
  1277.0     0.000783    488.70313     1477.39868
  1222.0     0.000818    488.52182     1478.30457
  1357.0     0.000737    488.34042     1468.19458
  1328.0     0.000753    488.15863     1447.76868
  1258.0     0.000795    487.97681     1418.74121
  1284.0     0.000779    487.79477     1383.47449
  1155.0     0.000866    487.61234     1344.54346
  1239.0     0.000807    487.42984     1304.37097
  1151.0     0.000869    487.24704     1264.91187
  1193.0     0.000838    487.06409     1227.44897
  1149.0     0.000870    486.88086     1192.49023
  1210.0     0.000826    486.69736     1159.90588
  1087.0     0.000920    486.51370     1128.55212
  1210.0     0.000826    486.32993     1097.20801
  1025.0     0.000976    486.14578     1064.40649
  1126.0     0.000888    485.96149     1028.88867
  1093.0     0.000915    485.77692     989.92712
  1021.0     0.000979    485.59213     947.52576
  959.0      0.001043    485.40723     902.42169
  955.0      0.001047    485.22198     855.90381
  881.0      0.001135    485.03668     809.55237
  797.0      0.001255    484.85098     764.99512
  806.0      0.001241    484.66510     724.07916
  737.0      0.001357    484.47897     687.31805
  662.0      0.001511    484.29276     655.92786
  700.0      0.001429    484.10629     630.38715
  601.0      0.001664    483.91946     610.78693
  622.0      0.001608    483.73257     596.86627
  666.0      0.001502    483.54538     588.06848
  682.0      0.001466    483.35794     583.60895
  675.0      0.001481    483.17020     582.54559
  649.0      0.001541    482.98251     583.84906
  708.0      0.001412    482.79443     586.46948
  701.0      0.001427    482.60614     589.40070
  727.0      0.001376    482.41751     591.74402
  706.0      0.001416    482.22885     592.76489
  751.0      0.001332    482.03998     591.94269
  753.0      0.001328    481.85074     589.00531
  652.0      0.001534    481.66141     583.93738
  742.0      0.001348    481.47174     576.96075
  614.0      0.001629    481.28198     568.48230
  632.0      0.001582    481.09195     559.02423
  640.0      0.001563    480.90161     549.14795
  512.0      0.001953    480.71121     539.38678
  617.0      0.001621    480.52042     530.19189
  526.0      0.001901    480.32950     521.89899
  523.0      0.001912    480.13828     515.21985
  525.0      0.001905    479.94693     509.25168
  474.0      0.002110    479.75534     504.45212
  523.0      0.001912    479.56348     500.72153
  454.0      0.002203    479.37152     497.91245
  500.0      0.002000    479.17920     495.85898
  486.0      0.002058    478.98679     494.39835
  491.0      0.002037    478.79404     493.70975
  483.0      0.002070    478.60123     493.05273
  432.0      0.002315    478.40805     492.65472
  438.0      0.002283    478.21475     492.47296
  503.0      0.001988    478.02118     492.50015
  407.0      0.002457    477.82736     492.76184
  397.0      0.002519    477.63339     493.31644
  432.0      0.002315    477.43912     494.25269
  458.0      0.002183    477.24472     495.68954
  462.0      0.002165    477.05002     497.77570
  428.0      0.002336    476.85513     500.68723
  487.0      0.002053    476.65994     504.66019
  446.0      0.002242    476.46475     509.84326
  525.0      0.001905    476.26923     516.50024
  433.0      0.002309    476.07336     524.85663
  448.0      0.002232    475.87747     535.11938
  469.0      0.002132    475.68130     547.46094
  514.0      0.001946    475.48495     561.98236
  499.0      0.002004    475.28824     578.71521
  588.0      0.001701    475.09146     597.58545
  530.0      0.001887    474.89435     618.40015
  577.0      0.001733    474.69708     640.83728
  645.0      0.001550    474.49966     664.44537
  675.0      0.001481    474.30194     688.65131
  690.0      0.001449    474.10406     712.78180
  817.0      0.001224    473.90594     736.09241
  855.0      0.001170    473.70761     757.80597
  913.0      0.001095    473.50903     777.15460
  944.0      0.001059    473.31033     793.42682
  1075.0     0.000930    473.11136     806.01685
  960.0      0.001042    472.91211     814.47473
  1101.0     0.000908    472.71271     816.53516
  1037.0     0.000964    472.51306     816.27081
  1005.0     0.000995    472.31329     811.83624
  972.0      0.001029    472.11319     803.62152
  897.0      0.001115    471.91293     791.72375
  790.0      0.001266    471.71243     777.37549
  754.0      0.001326    471.51181     760.60992
  631.0      0.001585    471.31085     741.79919
  653.0      0.001531    471.10983     721.30908
  666.0      0.001502    470.90845     699.54797
  578.0      0.001730    470.70694     677.00739
  628.0      0.001592    470.50525     654.38672
  512.0      0.001953    470.30334     632.00092
  584.0      0.001712    470.10117     610.52722
  433.0      0.002309    469.89883     590.42090
  517.0      0.001934    469.69626     572.01996
  469.0      0.002132    469.49356     555.54199
  435.0      0.002299    469.29050     541.09583
  453.0      0.002208    469.08740     528.70129
  435.0      0.002299    468.88397     518.30878
  487.0      0.002053    468.68048     509.82043
  399.0      0.002506    468.47662     503.10306
  495.0      0.002020    468.27271     498.00388
  386.0      0.002591    468.06848     494.35718
  480.0      0.002083    467.86414     491.98969
  403.0      0.002481    467.65961     490.72299
  422.0      0.002370    467.45477     490.37207
  513.0      0.001949    467.24982     490.74683
  447.0      0.002237    467.04459     491.65259
  490.0      0.002041    466.83929     492.89578
  475.0      0.002105    466.63358     494.29196
  430.0      0.002326    466.42780     495.67761
  460.0      0.002174    466.22195     497.20227
  440.0      0.002273    466.01575     498.22943
  442.0      0.002262    465.80939     499.00104
  476.0      0.002101    465.60278     499.53989
  506.0      0.001976    465.39612     499.91821
  441.0      0.002268    465.18912     500.24295
  506.0      0.001976    464.98193     500.63742
  449.0      0.002227    464.77457     501.37109
  486.0      0.002058    464.56702     502.23932
  468.0      0.002137    464.35941     503.43164
  509.0      0.001965    464.15146     504.93790
  440.0      0.002273    463.94333     506.71432
  470.0      0.002128    463.73517     508.58401
  443.0      0.002257    463.52661     510.40488
  390.0      0.002564    463.31802     511.98447
  474.0      0.002110    463.10925     513.12964
  447.0      0.002237    462.90024     513.67206
  452.0      0.002212    462.69092     513.49512
  450.0      0.002222    462.48166     512.55469
  434.0      0.002304    462.27206     510.88712
  421.0      0.002375    462.06229     508.60147
  449.0      0.002227    461.85236     505.85510
  432.0      0.002315    461.64230     502.82925
  433.0      0.002309    461.43201     499.70471
  451.0      0.002217    461.22156     496.64734
  378.0      0.002646    461.01093     493.79895
  552.0      0.001812    460.80011     491.27283
  451.0      0.002217    460.58914     489.15485
  475.0      0.002105    460.37799     487.50516
  486.0      0.002058    460.16675     486.36508
  443.0      0.002257    459.95520     485.76074
  520.0      0.001923    459.74356     485.70862
  455.0      0.002198    459.53168     486.21649
  496.0      0.002016    459.31970     487.28738
  504.0      0.001984    459.10760     488.90491
  472.0      0.002119    458.89523     491.04050
  486.0      0.002058    458.68280     493.63953
  484.0      0.002066    458.47009     496.61746
  550.0      0.001818    458.25729     499.85764
  527.0      0.001898    458.04437     503.21143
  571.0      0.001751    457.83127     506.50464
  529.0      0.001890    457.61792     509.54800
  524.0      0.001908    457.40451     512.50946
  516.0      0.001938    457.19101     514.55078
  527.0      0.001898    456.97723     515.88611
  461.0      0.002169    456.76331     516.48419
  491.0      0.002037    456.54919     516.41742
  490.0      0.002041    456.33505     515.86859
  425.0      0.002353    456.12061     515.11456
  450.0      0.002222    455.90616     514.48706
  461.0      0.002169    455.69159     515.64844
  446.0      0.002242    455.47668     516.28021
  484.0      0.002066    455.26181     517.86786
  455.0      0.002198    455.04678     520.53931
  447.0      0.002237    454.83157     524.28888
  422.0      0.002370    454.61615     528.99921
  532.0      0.001880    454.40076     534.45880
  483.0      0.002070    454.18512     540.41003
  485.0      0.002062    453.96933     546.87872
  505.0      0.001980    453.75348     552.86005
  488.0      0.002049    453.53748     558.41644
  481.0      0.002079    453.32129     563.30902
  592.0      0.001689    453.10501     567.34814
  507.0      0.001972    452.88864     570.39313
  564.0      0.001773    452.67206     572.34680
  564.0      0.001773    452.45544     573.15454
  568.0      0.001761    452.23877     572.81110
  534.0      0.001873    452.02179     571.39539
  537.0      0.001862    451.80481     569.06445
  537.0      0.001862    451.58768     565.97583
  497.0      0.002012    451.37051     562.52277
  568.0      0.001761    451.15314     559.11499
  520.0      0.001923    450.93564     556.19061
  514.0      0.001946    450.71808     554.16815
  579.0      0.001727    450.50043     553.40051
  541.0      0.001848    450.28271     554.13501
  531.0      0.001883    450.06473     556.47742
  545.0      0.001835    449.84686     560.37347
  500.0      0.002000    449.62869     565.60107
  523.0      0.001912    449.41058     571.78564
  602.0      0.001661    449.19217     578.42969
  520.0      0.001923    448.97391     584.96191
  520.0      0.001923    448.75534     590.79645
  505.0      0.001980    448.53683     595.39819
  545.0      0.001835    448.31830     598.34619
  545.0      0.001835    448.09949     599.43732
  506.0      0.001976    447.88065     598.47247
  576.0      0.001736    447.66174     595.58569
  492.0      0.002033    447.44278     590.97327
  520.0      0.001923    447.22366     584.90741
  549.0      0.001821    447.00455     577.69611
  517.0      0.001934    446.78543     569.65649
  538.0      0.001859    446.56610     561.17590
  552.0      0.001812    446.34671     552.37891
  524.0      0.001908    446.12726     543.57770
  528.0      0.001894    445.90787     534.96527
  511.0      0.001957    445.68820     526.68854
  492.0      0.002033    445.46866     518.85406
  520.0      0.001923    445.24899     511.62265
  522.0      0.001916    445.02930     504.88596
  518.0      0.001931    444.80945     498.78189
  483.0      0.002070    444.58957     493.36984
  528.0      0.001894    444.36975     489.58127
  493.0      0.002028    444.14981     485.81760
  536.0      0.001866    443.92984     482.98566
  514.0      0.001946    443.70975     481.52081
  445.0      0.002247    443.48972     480.79663
  557.0      0.001795    443.26956     481.19208
  513.0      0.001949    443.04953     482.69379
  536.0      0.001866    442.82938     484.88086
  587.0      0.001704    442.60907     488.29364
  534.0      0.001873    442.38885     492.34912
  511.0      0.001957    442.16858     496.74228
  548.0      0.001825    441.94833     501.11588
  519.0      0.001927    441.72791     505.08881
  560.0      0.001786    441.50763     508.29749
  539.0      0.001855    441.28735     510.43716
  513.0      0.001949    441.06683     511.33331
  561.0      0.001783    440.84659     510.86319
  531.0      0.001883    440.62616     509.13895
  543.0      0.001842    440.40573     506.39749
  476.0      0.002101    440.18533     503.00717
  488.0      0.002049    439.96500     499.43585
  521.0      0.001919    439.74451     496.21347
  515.0      0.001942    439.52414     493.89490
  494.0      0.002024    439.30383     493.02496
  494.0      0.002024    439.08337     494.10828
  500.0      0.002000    438.86307     497.58234
  501.0      0.001996    438.64267     503.79034
  560.0      0.001786    438.42236     512.95575
  564.0      0.001773    438.20203     525.15259
  685.0      0.001460    437.98172     540.27643
  619.0      0.001616    437.76144     558.01697
  714.0      0.001401    437.54126     577.83966
  716.0      0.001397    437.32101     598.98108
  661.0      0.001513    437.10083     620.46405
  679.0      0.001473    436.88074     641.13892
  697.0      0.001435    436.66061     659.74939
  685.0      0.001460    436.44061     675.03271
  686.0      0.001458    436.22052     685.84723
  705.0      0.001418    436.00058     691.32074
  674.0      0.001484    435.78079     690.99493
  650.0      0.001538    435.56088     684.00635
  656.0      0.001524    435.34106     672.76910
  591.0      0.001692    435.12134     657.29401
  627.0      0.001595    434.90167     639.52490
  525.0      0.001905    434.68204     619.27948
  633.0      0.001580    434.46252     598.50800
  547.0      0.001828    434.24298     578.66077
  568.0      0.001761    434.02371     559.93420
  605.0      0.001653    433.80438     543.39886
  607.0      0.001647    433.58511     529.41620
  527.0      0.001898    433.36606     518.28003
  586.0      0.001706    433.14691     510.07285
  606.0      0.001650    432.92801     504.76028
  519.0      0.001927    432.70905     503.33575
  631.0      0.001585    432.49042     503.59586
  551.0      0.001815    432.27164     506.44299
  595.0      0.001681    432.05313     511.82004
  599.0      0.001669    431.83472     519.73102
  563.0      0.001776    431.61636     530.24878
  578.0      0.001730    431.39813     543.51605
  651.0      0.001536    431.18002     559.73840
  658.0      0.001520    430.96210     579.17798
  677.0      0.001477    430.74420     602.14130
  704.0      0.001420    430.52643     629.32251
  740.0      0.001351    430.30887     660.35529
  770.0      0.001299    430.09137     695.89313
  779.0      0.001284    429.87411     736.17590
  871.0      0.001148    429.65686     781.31641
  940.0      0.001064    429.43979     831.23438
  979.0      0.001021    429.22287     885.58112
  1181.0     0.000847    429.00620     943.66736
  1268.0     0.000789    428.78958     1004.40625
  1386.0     0.000722    428.57318     1066.28650
  1532.0     0.000653    428.35690     1127.38696
  1778.0     0.000562    428.14075     1185.44946
  1902.0     0.000526    427.92484     1238.00952
  1966.0     0.000509    427.70911     1282.57849
  2029.0     0.000493    427.49356     1316.87500
  1965.0     0.000509    427.27814     1339.07239
  1920.0     0.000521    427.06296     1348.01697
  1954.0     0.000512    426.84790     1343.42554
  1775.0     0.000563    426.63309     1325.94189
  1774.0     0.000564    426.41849     1297.07178
  1658.0     0.000603    426.20401     1258.99231
  1580.0     0.000633    425.98981     1214.37305
  1442.0     0.000693    425.77573     1165.77856
  1375.0     0.000727    425.56195     1115.90063
  1323.0     0.000756    425.34827     1067.03577
  1277.0     0.000783    425.13489     1021.02545
  1162.0     0.000861    424.92175     979.17578
  1150.0     0.000870    424.70874     942.23608
  1010.0     0.000990    424.49606     910.42755
  1049.0     0.000953    424.28360     883.50787
  1032.0     0.000969    424.07138     860.86255
  1022.0     0.000978    423.85931     841.61395
  1017.0     0.000983    423.64764     824.74750
  999.0      0.001001    423.43613     809.24365
  994.0      0.001006    423.22479     794.20959
  917.0      0.001091    423.01389     778.97589
  1024.0     0.000977    422.80307     763.14685
  927.0      0.001079    422.59262     746.59540
  911.0      0.001098    422.38245     729.46460
  961.0      0.001041    422.17252     712.01971
  963.0      0.001038    421.96277     694.74500
  854.0      0.001171    421.75339     678.21454
  887.0      0.001127    421.54425     663.04486
  858.0      0.001166    421.33548     649.83093
  830.0      0.001205    421.12698     639.09552
  796.0      0.001256    420.91873     631.25403
  780.0      0.001282    420.71078     626.76917
  820.0      0.001220    420.50327     625.47473
  779.0      0.001284    420.29590     627.57635
  769.0      0.001300    420.08884     633.00745
  756.0      0.001323    419.88223     641.60083
  783.0      0.001277    419.67590     653.09613
  806.0      0.001241    419.46979     667.70129
  738.0      0.001355    419.26416     683.90558
  814.0      0.001229    419.05875     701.65137
  792.0      0.001263    418.85367     720.24615
  772.0      0.001295    418.64899     738.86816
  808.0      0.001238    418.44464     756.58154
  769.0      0.001300    418.24063     772.37299
  781.0      0.001280    418.03699     785.21497
  874.0      0.001144    417.83371     794.14728
  762.0      0.001312    417.63083     798.37952
  862.0      0.001160    417.42828     797.39539
  886.0      0.001129    417.22604     791.04492
  861.0      0.001161    417.02420     779.62646
  759.0      0.001318    416.82281     763.79193
  862.0      0.001160    416.62180     744.63641
  749.0      0.001335    416.42108     723.48486
  890.0      0.001124    416.22086     701.75995
  825.0      0.001212    416.02103     680.80914
  762.0      0.001312    415.82150     661.74341
  769.0      0.001300    415.62247     645.31445
  760.0      0.001316    415.42374     631.84662
  732.0      0.001366    415.22559     621.35931
  659.0      0.001517    415.02768     613.13763
  695.0      0.001439    414.83029     606.55109
  630.0      0.001587    414.63333     600.72723
  680.0      0.001471    414.43671     594.81348
  597.0      0.001675    414.24069     588.11078
  628.0      0.001592    414.04498     580.16492
  590.0      0.001695    413.84985     570.79913
  660.0      0.001515    413.65494     560.08936
  607.0      0.001647    413.46066     548.30524
  610.0      0.001639    413.26678     535.84003
  565.0      0.001770    413.07343     523.14838
  527.0      0.001898    412.88055     510.69025
  529.0      0.001890    412.68808     498.88705
  494.0      0.002024    412.49609     488.22357
  432.0      0.002315    412.30457     478.69321
  462.0      0.002165    412.11362     470.54028
  412.0      0.002427    411.92300     463.80447
  443.0      0.002257    411.73294     458.42670
  512.0      0.001953    411.54337     454.27850
  405.0      0.002469    411.35440     451.18576
  488.0      0.002049    411.16589     448.95059
  416.0      0.002404    410.97781     447.36954
  376.0      0.002660    410.79037     446.25153
  499.0      0.002004    410.60333     445.43155
  387.0      0.002584    410.41693     444.78418
  453.0      0.002208    410.23093     444.23215
  391.0      0.002558    410.04559     443.75052
  479.0      0.002088    409.86081     443.36264
  383.0      0.002611    409.67642     443.12558
  440.0      0.002273    409.49265     443.11111
  430.0      0.002326    409.30948     443.38348
  386.0      0.002591    409.12683     443.98212
  441.0      0.002268    408.94473     444.90662
  406.0      0.002463    408.76318     446.11105
  416.0      0.002404    408.58215     447.50232
  484.0      0.002066    408.40176     448.94711
  462.0      0.002165    408.22208     450.28647
  481.0      0.002079    408.04288     448.72403
  494.0      0.002024    407.86423     449.66083
  442.0      0.002262    407.68616     449.79019
  483.0      0.002070    407.50876     449.40350
  479.0      0.002088    407.33185     448.45584
  479.0      0.002088    407.15567     447.03156
  408.0      0.002451    406.98001     445.26727
  430.0      0.002326    406.80508     443.33258
  435.0      0.002299    406.63074     441.42392
  502.0      0.001992    406.45697     439.69250
  442.0      0.002262    406.28387     438.31448
  461.0      0.002169    406.11133     437.42551
  471.0      0.002123    405.93951     437.12973
  381.0      0.002625    405.76822     437.49625
  474.0      0.002110    405.59772     438.55948
  420.0      0.002381    405.42792     440.31973
  449.0      0.002227    405.25858     443.21365
  445.0      0.002247    405.09000     446.23450
  452.0      0.002212    404.92209     449.82883
  475.0      0.002105    404.75485     453.82266
  420.0      0.002381    404.58829     458.51190
  548.0      0.001825    404.42242     462.92346
  421.0      0.002375    404.25720     467.30634
  499.0      0.002004    404.09262     471.52682
  451.0      0.002217    403.92880     475.48471
  477.0      0.002096    403.76566     479.13312
  425.0      0.002353    403.60333     482.50122
  493.0      0.002028    403.44156     485.71317
  437.0      0.002288    403.28055     488.99692
  498.0      0.002008    403.12024     492.67505
  507.0      0.001972    402.96072     497.13501
  514.0      0.001946    402.80185     502.78143
  445.0      0.002247    402.64377     509.97913
  522.0      0.001916    402.48642     518.99408
  501.0      0.001996    402.32977     529.93768
  500.0      0.002000    402.17386     542.72034
  542.0      0.001845    402.01862     557.02289
  516.0      0.001938    401.86435     572.28741
  527.0      0.001898    401.71069     587.73773
  651.0      0.001536    401.55780     602.43042
  504.0      0.001984    401.40576     615.33038
  601.0      0.001664    401.25436     625.41510
  604.0      0.001656    401.10376     631.78827
  623.0      0.001605    400.95398     633.79224
  569.0      0.001757    400.80493     631.09003
  606.0      0.001650    400.65677     623.70807
  619.0      0.001616    400.50937     612.02704
  542.0      0.001845    400.36273     596.73401
  641.0      0.001560    400.21689     578.73981
  581.0      0.001721    400.07190     559.07727
  598.0      0.001672    399.92761     538.79187
  523.0      0.001912    399.78424     518.84753
  560.0      0.001786    399.64166     500.05304
  476.0      0.002101    399.49991     483.02014
  493.0      0.002028    399.35889     468.14713
  509.0      0.001965    399.21884     455.62814
  435.0      0.002299    399.07962     445.48325
  537.0      0.001862    398.94116     437.58713
  431.0      0.002320    398.80353     431.72760
  430.0      0.002326    398.66687     427.63766
  489.0      0.002045    398.53101     425.03220
  428.0      0.002336    398.39581     423.63354
  436.0      0.002294    398.26178     423.18744
  427.0      0.002342    398.12851     423.47110
  461.0      0.002169    397.99600     424.29364
  376.0      0.002660    397.86450     425.49084
  408.0      0.002451    397.73383     426.92020
  423.0      0.002364    397.60403     428.45242
  382.0      0.002618    397.47507     429.96622
  459.0      0.002179    397.34714     431.34402
  428.0      0.002336    397.21997     432.46982
  400.0      0.002500    397.09372     433.23273
  439.0      0.002278    396.96832     433.53348
  366.0      0.002732    396.84399     433.29593
  368.0      0.002717    396.72046     432.48059
  432.0      0.002315    396.59784     431.09445
  356.0      0.002809    396.47623     429.19229
  447.0      0.002237    396.35538     426.86734
  384.0      0.002604    396.23563     424.23584
  392.0      0.002551    396.11667     421.42050
  356.0      0.002809    395.99869     418.53796
  375.0      0.002667    395.88168     415.69165
  386.0      0.002591    395.76553     412.96692
  416.0      0.002404    395.65045     410.42920
  435.0      0.002299    395.53629     408.12320
  384.0      0.002604    395.42313     405.62866
  431.0      0.002320    395.31070     403.85181
  390.0      0.002564    395.19940     402.33447
  434.0      0.002304    395.08908     401.05975
  393.0      0.002545    394.97971     400.00375
  391.0      0.002558    394.87131     399.13861
  361.0      0.002770    394.76385     398.24115
  382.0      0.002618    394.65738     398.40231
  357.0      0.002801    394.55194     398.03781
  417.0      0.002398    394.44745     397.79538
  360.0      0.002778    394.34387     397.67563
  414.0      0.002415    394.24136     397.69284
  342.0      0.002924    394.13989     397.87662
  369.0      0.002710    394.03943     398.27658
  368.0      0.002717    393.93994     398.96500
  426.0      0.002347    393.84137     400.04071
  376.0      0.002660    393.74393     401.63028
  403.0      0.002481    393.64740     403.88730
  482.0      0.002075    393.55197     406.98676
  445.0      0.002247    393.45752     411.11496
  353.0      0.002833    393.36414     416.45279
  414.0      0.002415    393.27176     423.15247
  381.0      0.002625    393.18042     431.30997
  426.0      0.002347    393.09015     440.93506
  417.0      0.002398    393.00082     451.92264
  420.0      0.002381    392.91260     464.03186
  468.0      0.002137    392.82541     476.87576
  359.0      0.002786    392.73926     489.92709
  479.0      0.002088    392.65417     502.54150
  470.0      0.002128    392.57016     514.00031
  475.0      0.002105    392.48718     523.69708
  544.0      0.001838    392.40527     530.70178
  464.0      0.002155    392.32443     534.60187
  550.0      0.001818    392.24460     535.07690
  530.0      0.001887    392.16589     532.07764
  458.0      0.002183    392.08829     525.83337
  497.0      0.002012    392.01163     516.82092
  543.0      0.001842    391.93622     505.68457
  483.0      0.002070    391.86172     493.20724
  510.0      0.001961    391.78845     480.01886
  464.0      0.002155    391.71622     466.84625
  441.0      0.002268    391.64502     454.25922
  518.0      0.001931    391.57495     442.69073
  431.0      0.002320    391.50598     432.42761
  479.0      0.002088    391.43805     423.61490
  416.0      0.002404    391.37131     416.27417
  401.0      0.002494    391.30566     410.33109
  498.0      0.002008    391.24112     405.64584
  382.0      0.002618    391.17767     402.04083
  438.0      0.002283    391.11520     399.32706
  403.0      0.002481    391.05402     397.32291
  370.0      0.002703    390.99384     395.86356
  431.0      0.002320    390.93491     394.81171
  338.0      0.002959    390.87701     394.05597
  440.0      0.002273    390.82019     393.51126
  408.0      0.002451    390.76462     393.11377
  414.0      0.002415    390.71005     392.81836
  376.0      0.002660    390.65662     392.59363
  423.0      0.002364    390.60437     392.41818
  409.0      0.002445    390.55325     392.27866
  426.0      0.002347    390.50320     392.16550
  395.0      0.002532    390.45438     392.07352
  423.0      0.002364    390.40665     391.99911
  367.0      0.002725    390.36014     391.94077
  437.0      0.002288    390.31464     391.89734
  401.0      0.002494    390.27029     391.86975
  419.0      0.002387    390.22720     391.85846
  361.0      0.002770    390.18515     391.86569
  432.0      0.002315    390.14429     391.89453
  338.0      0.002959    390.10455     391.94922
  372.0      0.002688    390.06601     392.04718
  384.0      0.002604    390.02863     392.17438
  409.0      0.002445    389.99237     392.35104
  403.0      0.002481    389.95728     392.58939
  416.0      0.002404    389.92331     392.90433
  412.0      0.002427    389.89050     393.31354
  386.0      0.002591    389.85898     393.72443
  463.0      0.002160    389.82852     394.38943
  357.0      0.002801    389.79916     395.21906
  412.0      0.002427    389.77118     396.28375
  422.0      0.002370    389.74414     397.52927
  329.0      0.003040    389.71835     399.02484
  482.0      0.002075    389.69373     400.79700
  375.0      0.002667    389.67029     402.87717
  414.0      0.002415    389.64804     405.26425
  365.0      0.002740    389.62695     407.97449
  430.0      0.002326    389.60699     411.00430
  394.0      0.002538    389.58817     414.33707
  405.0      0.002469    389.57065     417.94153
  448.0      0.002232    389.55417     421.77045
  412.0      0.002427    389.53894     425.76120
  450.0      0.002222    389.52490     429.83661
  415.0      0.002410    389.51202     433.90738
  416.0      0.002404    389.50031     437.87558
  432.0      0.002315    389.48981     441.63876
  441.0      0.002268    389.48044     445.09598
  388.0      0.002577    389.47229     448.15268
  414.0      0.002415    389.46533     450.72607
  423.0      0.002364    389.45944     452.74884
  343.0      0.002915    389.45483     454.17181
  435.0      0.002299    389.45135     454.96481
  355.0      0.002817    389.44910     455.11649
  433.0      0.002309    389.44797     454.63599
  356.0      0.002809    389.44812     453.55350
  439.0      0.002278    389.44943     451.83957
  383.0      0.002611    389.45181     449.73380
  454.0      0.002203    389.45547     447.24365
  378.0      0.002646    389.46030     444.47125
  420.0      0.002381    389.46634     441.52060
  365.0      0.002740    389.47354     438.48816
  441.0      0.002268    389.48187     435.45584
  346.0      0.002890    389.49139     432.48523
  369.0      0.002710    389.50220     429.61612
  416.0      0.002404    389.51407     426.86621
  440.0      0.002273    389.52713     424.46994
  374.0      0.002674    389.54138     421.94897
  400.0      0.002500    389.55682     419.50665
  451.0      0.002217    389.57339     417.11804
  358.0      0.002793    389.59125     414.76523
  427.0      0.002342    389.61011     412.44348
  397.0      0.002519    389.63031     410.16220
  347.0      0.002882    389.65161     407.94406
  384.0      0.002604    389.67416     405.81931
  395.0      0.002532    389.69785     403.82111
  363.0      0.002755    389.72256     401.98056
  338.0      0.002959    389.74860     400.32422
  429.0      0.002331    389.77576     398.87149
  318.0      0.003145    389.80414     397.68552
  368.0      0.002717    389.83365     396.66348
  378.0      0.002646    389.86432     395.85080
  321.0      0.003115    389.89615     395.23355
  342.0      0.002924    389.92923     394.79248
  312.0      0.003205    389.96332     394.50406
  435.0      0.002299    389.99863     394.34381
  324.0      0.003086    390.03506     394.28589
  419.0      0.002387    390.07272     394.30630
  418.0      0.002392    390.11154     394.38251
  347.0      0.002882    390.15146     394.49487
  391.0      0.002558    390.19263     394.62674
  401.0      0.002494    390.23483     394.76477
  408.0      0.002451    390.27820     394.89923
  397.0      0.002519    390.32269     395.02454
  325.0      0.003077    390.36847     395.13977
  407.0      0.002457    390.41525     395.24905
  364.0      0.002747    390.46317     395.36212
  342.0      0.002924    390.51230     395.49503
  402.0      0.002488    390.56247     395.66974
  375.0      0.002667    390.61389     395.91534
  366.0      0.002732    390.66635     396.26669
  356.0      0.002809    390.72000     396.76508
  380.0      0.002632    390.77472     397.68390
  359.0      0.002786    390.83060     398.62198
  377.0      0.002653    390.88760     399.46555
  382.0      0.002618    390.94565     401.05148
  400.0      0.002500    391.00491     403.01767
  370.0      0.002703    391.06519     405.39194
  428.0      0.002336    391.12659     408.18323
  383.0      0.002611    391.18915     411.33191
  403.0      0.002481    391.25281     414.89789
  396.0      0.002525    391.31750     418.73920
  478.0      0.002092    391.38339     422.39856
  398.0      0.002513    391.45032     426.52335
  408.0      0.002451    391.51837     430.50232
  411.0      0.002433    391.58743     434.14346
  410.0      0.002439    391.65759     437.24304
  380.0      0.002632    391.72879     439.60269
  394.0      0.002538    391.80118     441.05362
  424.0      0.002358    391.87463     441.48499
  351.0      0.002849    391.94904     440.86569
  410.0      0.002439    392.02463     439.25247
  356.0      0.002809    392.10123     436.77798
  408.0      0.002451    392.17883     433.62607
  377.0      0.002653    392.25760     430.00143
  355.0      0.002817    392.33740     426.10745
  399.0      0.002506    392.41812     422.12994
  406.0      0.002463    392.50003     418.22812
  362.0      0.002762    392.58289     414.53033
  367.0      0.002725    392.66681     411.13223
  359.0      0.002786    392.75174     408.12057
  322.0      0.003106    392.83768     405.48145
  387.0      0.002584    392.92468     403.25250
  325.0      0.003077    393.01273     401.40356
  379.0      0.002639    393.10165     399.91299
  329.0      0.003040    393.19171     398.73926
  383.0      0.002611    393.28271     397.83865
  360.0      0.002778    393.37473     397.16562
  419.0      0.002387    393.46780     396.67709
  329.0      0.003040    393.56165     396.33447
  372.0      0.002688    393.65662     396.10483
  328.0      0.003049    393.75259     395.96094
  372.0      0.002688    393.84958     395.88098
  401.0      0.002494    393.94742     395.84814
  340.0      0.002941    394.04626     395.85010
  420.0      0.002381    394.14606     395.87778
  312.0      0.003205    394.24689     395.92450
  396.0      0.002525    394.34851     395.98782
  328.0      0.003049    394.45123     396.06155
  340.0      0.002941    394.55472     396.14539
  393.0      0.002545    394.65909     396.23883
  285.0      0.00351     394.76456     396.34155
  409.0      0.002445    394.87091     396.45383
  327.0      0.003058    394.97821     396.57660
  378.0      0.002646    395.08627     396.71112
  340.0      0.002941    395.19543     396.85858
  330.0      0.003030    395.30530     397.02118
  434.0      0.002304    395.41614     397.22433
  340.0      0.002941    395.52792     397.42172
  415.0      0.002410    395.64044     397.63837
  353.0      0.002833    395.75385     397.87531
  339.0      0.002950    395.86816     398.13208
  389.0      0.002571    395.98340     398.40860
  333.0      0.003003    396.09940     398.70297
  410.0      0.002439    396.21628     399.01291
  350.0      0.002857    396.33401     399.33563
  419.0      0.002387    396.45245     399.66776
  352.0      0.002841    396.57175     400.00610
  358.0      0.002793    396.69196     400.34750
  360.0      0.002778    396.81290     400.69037
  395.0      0.002532    396.93466     401.03470
  391.0      0.002558    397.05731     401.92984
  365.0      0.002740    397.18063     402.11160
  345.0      0.002899    397.30472     402.56940
  373.0      0.002681    397.42969     403.07990
  370.0      0.002703    397.55533     403.66592
  345.0      0.002899    397.68176     404.38535
  433.0      0.002309    397.80893     405.21158
  341.0      0.002933    397.93692     406.21448
  372.0      0.002688    398.06555     407.44135
  417.0      0.002398    398.19495     408.94711
  376.0      0.002660    398.32513     410.79398
  404.0      0.002475    398.45584     413.05740
  383.0      0.002611    398.58749     415.78751
  447.0      0.002237    398.71973     419.05344
  372.0      0.002688    398.85269     422.90140
  428.0      0.002336    398.98618     427.35355
  460.0      0.002174    399.12061     432.39804
  402.0      0.002488    399.25555     437.98004
  461.0      0.002169    399.39111     443.99615
  437.0      0.002288    399.52737     450.29321
  509.0      0.001965    399.66425     456.67227
  500.0      0.002000    399.80182     462.89896
  432.0      0.002315    399.94000     468.71893
  509.0      0.001965    400.07880     473.87878
  476.0      0.002101    400.21817     478.15158
  471.0      0.002123    400.35818     481.36520
  465.0      0.002151    400.49872     483.42749
  481.0      0.002079    400.63995     484.34283
  426.0      0.002347    400.78165     484.21167
  483.0      0.002070    400.92386     483.21198
  423.0      0.002364    401.06680     481.56772
  501.0      0.001996    401.21024     479.51398
  421.0      0.002375    401.35419     477.26617
  443.0      0.002257    401.49866     474.99704
  472.0      0.002119    401.64374     473.05298
  459.0      0.002179    401.78922     471.03659
  455.0      0.002198    401.93518     469.57059
  418.0      0.002392    402.08167     467.79791
  505.0      0.001980    402.22867     466.05289
  398.0      0.002513    402.37616     464.27283
  459.0      0.002179    402.52408     462.42041
  380.0      0.002632    402.67245     460.50027
  398.0      0.002513    402.82129     458.53262
  445.0      0.002247    402.97058     456.58118
  438.0      0.002283    403.12024     454.72125
  426.0      0.002347    403.27042     453.03595
  449.0      0.002227    403.42090     451.62634
  436.0      0.002294    403.57178     450.53693
  460.0      0.002174    403.72318     449.90173
  337.0      0.002967    403.87479     449.67978
  484.0      0.002066    404.02692     449.95938
  445.0      0.002247    404.17929     450.76865
  399.0      0.002506    404.33203     452.12527
  476.0      0.002101    404.48514     454.03894
  423.0      0.002364    404.63858     456.61090
  433.0      0.002309    404.79230     459.68750
  503.0      0.001988    404.94629     463.34689
  447.0      0.002237    405.10080     467.59293
  473.0      0.002114    405.25540     472.42554
  489.0      0.002045    405.41040     477.83795
  508.0      0.001969    405.56552     483.81445
  528.0      0.001894    405.72089     490.32803
  533.0      0.001876    405.87653     497.34058
  505.0      0.001980    406.03247     504.80310
  508.0      0.001969    406.18866     512.65863
  561.0      0.001783    406.34500     520.84167
  509.0      0.001965    406.50156     529.27905
  529.0      0.001890    406.65826     537.88214
  536.0      0.001866    406.81525     546.54083
  622.0      0.001608    406.97232     555.11273
  585.0      0.001709    407.12952     563.41638
  570.0      0.001754    407.28696     571.23108
  623.0      0.001605    407.44452     578.30426
  589.0      0.001698    407.60220     584.36414
  599.0      0.001669    407.75992     589.13165
  682.0      0.001466    407.91788     592.33203
  599.0      0.001669    408.07581     593.70801
  621.0      0.001610    408.23386     593.04230
  671.0      0.001490    408.39200     590.18463
  630.0      0.001587    408.55014     585.08337
  692.0      0.001445    408.70844     577.80811
  578.0      0.001730    408.86667     568.55908
  653.0      0.001531    409.02499     557.65961
  603.0      0.001658    409.18326     545.79095
  657.0      0.001522    409.34171     533.14410
  585.0      0.001709    409.49994     520.06189
  539.0      0.001855    409.65814     507.22070
  553.0      0.001808    409.81635     495.04810
  497.0      0.002012    409.97455     483.89313
  475.0      0.002105    410.13278     474.01111
  496.0      0.002016    410.29083     465.56219
  496.0      0.002016    410.44894     458.61749
  445.0      0.002247    410.60675     453.17517
  490.0      0.002041    410.76459     449.18036
  479.0      0.002088    410.92230     446.54587
  439.0      0.002278    411.07980     445.16989
  466.0      0.002146    411.23727     444.94922
  435.0      0.002299    411.39456     445.78458
  421.0      0.002375    411.55176     447.58252
  443.0      0.002257    411.70871     450.24979
  457.0      0.002188    411.86548     453.68677
  474.0      0.002110    412.02197     457.77832
  421.0      0.002375    412.17838     462.38809
  519.0      0.001927    412.33444     467.35385
  421.0      0.002375    412.49039     472.49023
  452.0      0.002212    412.64600     477.73975
  522.0      0.001916    412.80145     482.60995
  515.0      0.001942    412.95660     487.04620
  490.0      0.002041    413.11133     490.88135
  572.0      0.001748    413.26587     493.99359
  517.0      0.001934    413.42020     496.32144
  602.0      0.001661    413.57413     497.86917
  590.0      0.001695    413.72778     498.69968
  616.0      0.001623    413.88092     498.91824
  606.0      0.001650    414.03387     498.64594
  632.0      0.001582    414.18640     497.99377
  700.0      0.001429    414.33859     497.38947
  611.0      0.001637    414.49042     496.18463
  686.0      0.001458    414.64175     494.70602
  521.0      0.001919    414.79266     492.90097
  607.0      0.001647    414.94308     490.69388
  537.0      0.001862    415.09320     488.01340
  558.0      0.001792    415.24283     484.81924
  547.0      0.001828    415.39206     481.12357
  571.0      0.001751    415.54068     476.99304
  552.0      0.001812    415.68890     472.54141
  489.0      0.002045    415.83655     467.90973
  523.0      0.001912    415.98376     463.25827
  469.0      0.002132    416.13040     458.71713
  528.0      0.001894    416.27652     454.81931
  515.0      0.001942    416.42206     450.91104
  435.0      0.002299    416.56699     447.44687
  494.0      0.002024    416.71149     444.47757
  497.0      0.002012    416.85532     442.06241
  514.0      0.001946    416.99857     440.16998
  486.0      0.002058    417.14114     438.72040
  475.0      0.002105    417.28311     437.71301
  462.0      0.002165    417.42447     437.09857
  447.0      0.002237    417.56522     436.82690
  493.0      0.002028    417.70523     436.85229
  480.0      0.002083    417.84467     437.13818
  516.0      0.001938    417.98328     437.65955
  514.0      0.001946    418.12125     438.40402
  504.0      0.001984    418.25858     439.37369
  494.0      0.002024    418.39502     440.58392
  501.0      0.001996    418.53088     442.06464
  452.0      0.002212    418.66595     444.06653
  472.0      0.002119    418.80020     446.26956
  535.0      0.001869    418.93378     448.93533
  469.0      0.002132    419.06650     452.16104
  599.0      0.001669    419.19846     456.06265
  497.0      0.002012    419.32962     460.77347
  497.0      0.002012    419.45996     466.44235
  485.0      0.002062    419.58942     473.22797
  536.0      0.001866    419.71808     481.29172
  513.0      0.001949    419.84586     490.78561
  575.0      0.001739    419.97281     501.83826
  597.0      0.001675    420.09888     514.31610
  568.0      0.001761    420.22397     528.73669
  618.0      0.001618    420.34818     544.79877
  656.0      0.001524    420.47153     562.36481
  708.0      0.001412    420.59396     581.19196
  667.0      0.001499    420.71536     600.92535
  715.0      0.001399    420.83585     621.09918
  710.0      0.001408    420.95541     641.15094
  818.0      0.001222    421.07401     660.45050
  828.0      0.001208    421.19159     678.34534
  874.0      0.001144    421.30811     694.21967
  931.0      0.001074    421.42377     707.55914
  916.0      0.001092    421.53824     718.00146
  917.0      0.001091    421.65176     725.37805
  916.0      0.001092    421.76422     729.68848
  1050.0     0.000952    421.87558     731.12915
  939.0      0.001065    421.98602     730.04498
  923.0      0.001083    422.09531     726.89850
  974.0      0.001027    422.20343     722.22156
  887.0      0.001127    422.31055     716.56146
  910.0      0.001099    422.41660     710.42853
  863.0      0.001159    422.52142     704.25507
  864.0      0.001157    422.62503     698.36707
  904.0      0.001106    422.72769     692.97046
  810.0      0.001235    422.82919     688.16675
  824.0      0.001214    422.92929     683.91089
  841.0      0.001189    423.02838     680.11700
  787.0      0.001271    423.12625     676.63556
  788.0      0.001269    423.22296     673.25391
  824.0      0.001214    423.31833     669.77014
  739.0      0.001353    423.41263     666.32587
  743.0      0.001346    423.50568     662.07336
  738.0      0.001355    423.59741     657.13275
  754.0      0.001326    423.68793     651.46582
  700.0      0.001429    423.77716     644.91949
  810.0      0.001235    423.86523     637.46167
  720.0      0.001389    423.95197     629.15668
  769.0      0.001300    424.03723     620.08258
  676.0      0.001479    424.12149     610.36652
  724.0      0.001381    424.20416     600.18561
  655.0      0.001527    424.28568     589.76642
  686.0      0.001458    424.36588     579.38074
  712.0      0.001404    424.44458     569.33691
  631.0      0.001585    424.52203     559.96283
  718.0      0.001393    424.59808     551.57947
  612.0      0.001634    424.67279     544.54919
  637.0      0.001570    424.74612     538.97968
  689.0      0.001451    424.81808     535.08246
  678.0      0.001475    424.88864     532.95929
  646.0      0.001548    424.95782     532.46094
  686.0      0.001458    425.02554     533.47229
  674.0      0.001484    425.09180     535.74512
  709.0      0.001410    425.15665     538.97125
  664.0      0.001506    425.22006     542.81641
  705.0      0.001418    425.28201     546.96002
  711.0      0.001406    425.34253     551.13171
  672.0      0.001488    425.40155     555.14008
  663.0      0.001508    425.45901     558.88745
  739.0      0.001353    425.51517     562.31061
  691.0      0.001447    425.56973     565.59888
  692.0      0.001445    425.62277     568.80548
  714.0      0.001401    425.67432     572.04315
  723.0      0.001383    425.72443     575.38141
  693.0      0.001443    425.77292     578.80676
  766.0      0.001305    425.81989     582.19617
  696.0      0.001437    425.86533     585.31128
  737.0      0.001357    425.90921     587.81268
  711.0      0.001406    425.95160     589.31622
  695.0      0.001439    425.99237     589.39233
  651.0      0.001536    426.03159     587.71625
  643.0      0.001555    426.06921     584.06738
  717.0      0.001395    426.10522     578.53204
  635.0      0.001575    426.13971     570.90875
  629.0      0.001590    426.17255     561.56824
  547.0      0.001828    426.20383     550.80237
  585.0      0.001709    426.23349     539.15472
  513.0      0.001949    426.26147     527.04059
  515.0      0.001942    426.28790     514.93646
  540.0      0.001852    426.31271     503.28754
  505.0      0.001980    426.33585     492.47882
  469.0      0.002132    426.35736     482.81555
  491.0      0.002037    426.37726     474.51257
  424.0      0.002358    426.39542     467.69751
  412.0      0.002427    426.41193     462.39813
  460.0      0.002174    426.42691     458.66333
  455.0      0.002198    426.44012     456.22638
  414.0      0.002415    426.45172     455.01718
  502.0      0.001992    426.46155     454.84903
  486.0      0.002058    426.46976     455.51144
  431.0      0.002320    426.47629     456.78058
  480.0      0.002083    426.48114     458.42990
  480.0      0.002083    426.48431     460.23758
  511.0      0.001957    426.48572     462.02826
  506.0      0.001976    426.48550     463.56122
  536.0      0.001866    426.48358     464.70911
  478.0      0.002092    426.47995     465.35599
  552.0      0.001812    426.47452     465.43158
  484.0      0.002066    426.46744     464.91568
  524.0      0.001908    426.45871     463.84006
  496.0      0.002016    426.44812     462.28485
  509.0      0.001965    426.43594     460.36761
  488.0      0.002049    426.42197     458.23340
  446.0      0.002242    426.40628     456.04016
  469.0      0.002132    426.38892     453.94693
  422.0      0.002370    426.36969     452.10434
  430.0      0.002326    426.34888     449.10666
  437.0      0.002288    426.32623     448.17102
  395.0      0.002532    426.30191     447.79407
  454.0      0.002203    426.27588     448.00812
  398.0      0.002513    426.24799     448.80222
  493.0      0.002028    426.21841     450.12061
  387.0      0.002584    426.18716     451.86414
  418.0      0.002392    426.15411     453.70013
  410.0      0.002439    426.11932     455.85611
  423.0      0.002364    426.08276     457.94879
  403.0      0.002481    426.04449     459.79254
  458.0      0.002183    426.00455     461.21750
  414.0      0.002415    425.96277     462.08524
  408.0      0.002451    425.91931     462.30258
  443.0      0.002257    425.87411     461.83002
  430.0      0.002326    425.82703     460.68616
  411.0      0.002433    425.77844     458.94385
  457.0      0.002188    425.72791     456.72180
  440.0      0.002273    425.67581     454.17108
  383.0      0.002611    425.62192     451.45911
  398.0      0.002513    425.56638     448.75391
  383.0      0.002611    425.50888     446.20901
  407.0      0.002457    425.44980     443.95258
  438.0      0.002283    425.38895     442.07965
  365.0      0.002740    425.32645     440.65048
  407.0      0.002457    425.26224     439.61063
  418.0      0.002392    425.19614     439.12045
  397.0      0.002519    425.12854     439.06210
  375.0      0.002667    425.05911     439.38693
  402.0      0.002488    424.98801     440.03311
  426.0      0.002347    424.91519     440.93222
  403.0      0.002481    424.84079     442.01260
  435.0      0.002299    424.76462     443.20245
  378.0      0.002646    424.68671     444.43326
  404.0      0.002475    424.60715     445.63968
  381.0      0.002625    424.52597     446.76245
  395.0      0.002532    424.44302     447.74783
  397.0      0.002519    424.35837     448.55081
  370.0      0.002703    424.27222     449.13498
  394.0      0.002538    424.18433     449.47470
  409.0      0.002445    424.09473     449.55685
  378.0      0.002646    424.00366     449.38162
  474.0      0.002110    423.91077     448.96216
  388.0      0.002577    423.81631     448.32501
  410.0      0.002439    423.72025     447.51181
  406.0      0.002463    423.62259     446.56226
  389.0      0.002571    423.52325     445.52985
  383.0      0.002611    423.42236     444.46872
  453.0      0.002208    423.31979     443.43311
  368.0      0.002717    423.21594     442.47528
  398.0      0.002513    423.11017     441.64401
  367.0      0.002725    423.00293     440.98431
  359.0      0.002786    422.89423     440.53592
  384.0      0.002604    422.78387     440.33307
  410.0      0.002439    422.67200     440.40475
  397.0      0.002519    422.55859     440.77328
  382.0      0.002618    422.44376     441.45392
  406.0      0.002463    422.32730     442.45374
  320.0      0.003125    422.20941     443.76981
  439.0      0.002278    422.09003     445.38779
  353.0      0.002833    421.96918     447.27859
  361.0      0.002770    421.84677     449.39856
  349.0      0.002865    421.72290     451.68643
  357.0      0.002801    421.59769     454.06396
  371.0      0.002695    421.47098     456.43781
  390.0      0.002564    421.34283     458.70166
  372.0      0.002688    421.21335     460.74292
  443.0      0.002257    421.08249     462.44867
  410.0      0.002439    420.95020     463.71451
  384.0      0.002604    420.81656     464.45404
  382.0      0.002618    420.68161     464.60663
  371.0      0.002695    420.54523     464.14420
  378.0      0.002646    420.40747     463.07391
  370.0      0.002703    420.26843     461.43747
  409.0      0.002445    420.12827     459.30646
  407.0      0.002457    419.98672     456.77316
  386.0      0.002591    419.84378     454.00665
  424.0      0.002358    419.69974     450.99106
  396.0      0.002525    419.55441     447.89709
  405.0      0.002469    419.40781     444.80362
  442.0      0.002262    419.26001     441.79495
  399.0      0.002506    419.11108     438.93231
  411.0      0.002433    418.96103     436.25937
  413.0      0.002421    418.80960     433.80447
  352.0      0.002841    418.65729     431.58194
  413.0      0.002421    418.50369     429.59521
  356.0      0.002809    418.34897     427.83862
  411.0      0.002433    418.19321     426.30118
  328.0      0.003049    418.03653     424.96774
  414.0      0.002415    417.87857     423.82147
  421.0      0.002375    417.71967     422.84506
  434.0      0.002304    417.55978     422.02188
  421.0      0.002375    417.39880     421.33707
  393.0      0.002545    417.23694     420.77789
  366.0      0.002732    417.07404     420.33405
  393.0      0.002545    416.91037     419.99857
  395.0      0.002532    416.74567     419.76657
  363.0      0.002755    416.58002     419.63635
  370.0      0.002703    416.41348     419.60812
  389.0      0.002571    416.24625     419.68408
  344.0      0.002907    416.07806     419.86685
  427.0      0.002342    415.90906     420.15906
  419.0      0.002387    415.73938     420.56155
  400.0      0.002500    415.56885     421.07263
  405.0      0.002469    415.39749     421.68619
  415.0      0.002410    415.22549     422.39157
  362.0      0.002762    415.05292     423.17227
  450.0      0.002222    414.87958     424.00485
  423.0      0.002364    414.70541     424.86087
  441.0      0.002268    414.53085     425.70627
  445.0      0.002247    414.35559     426.50278
  438.0      0.002283    414.17978     427.21045
  431.0      0.002320    414.00330     427.79010
  408.0      0.002451    413.82648     428.20715
  397.0      0.002519    413.64893     428.43604
  458.0      0.002183    413.47101     428.46353
  402.0      0.002488    413.29272     428.29089
  428.0      0.002336    413.11392     427.93207
  438.0      0.002283    412.93466     427.41083
  412.0      0.002427    412.75504     426.75687
  383.0      0.002611    412.57516     426.00211
  467.0      0.002141    412.39490     425.18289
  421.0      0.002375    412.21426     424.31885
  367.0      0.002725    412.03342     423.44168
  423.0      0.002364    411.85245     422.57428
  397.0      0.002519    411.67117     421.73425
  394.0      0.002538    411.48959     420.93521
  385.0      0.002597    411.30811     420.18570
  398.0      0.002513    411.12628     419.96021
  453.0      0.002208    410.94437     419.33359
  411.0      0.002433    410.76233     418.75626
  449.0      0.002227    410.58047     418.22211
  389.0      0.002571    410.39847     417.72287
  441.0      0.002268    410.21643     417.24997
  347.0      0.002882    410.03458     416.81232
  401.0      0.002494    409.85269     416.37192
  363.0      0.002755    409.67087     415.93744
  432.0      0.002315    409.48920     415.50516
  363.0      0.002755    409.30786     415.07394
  441.0      0.002268    409.12659     414.64429
  416.0      0.002404    408.94553     414.21970
  416.0      0.002404    408.76483     413.80585
  412.0      0.002427    408.58435     413.40979
  382.0      0.002618    408.40424     413.04111
  434.0      0.002304    408.22437     412.70959
  379.0      0.002639    408.04507     412.42642
  392.0      0.002551    407.86609     412.20190
  405.0      0.002469    407.68762     412.04633
  394.0      0.002538    407.50958     411.77615
  391.0      0.002558    407.33215     411.78400
  379.0      0.002639    407.15524     412.19855
  372.0      0.002688    406.97882     412.37704
  324.0      0.003086    406.80325     412.63110
  438.0      0.002283    406.62817     412.94965
  361.0      0.002770    406.45374     413.31900
  412.0      0.002427    406.28009     413.72379
  414.0      0.002415    406.10736     414.14944
  430.0      0.002326    405.93527     414.58591
  429.0      0.002331    405.76407     415.03015
  473.0      0.002114    405.59381     415.49026
  408.0      0.002451    405.42438     415.99326
  421.0      0.002375    405.25580     416.56711
  418.0      0.002392    405.08826     417.27170
  407.0      0.002457    404.92184     418.17725
  443.0      0.002257    404.75635     419.36520
  441.0      0.002268    404.59204     420.92465
  395.0      0.002532    404.42889     422.94409
  407.0      0.002457    404.26682     425.50409
  506.0      0.001976    404.10587     428.66895
  404.0      0.002475    403.94617     432.47830
  456.0      0.002193    403.78787     436.93890
  411.0      0.002433    403.63086     442.01700
  398.0      0.002513    403.47519     447.63495
  440.0      0.002273    403.32083     453.66721
  433.0      0.002309    403.16797     459.94083
  421.0      0.002375    403.01654     466.23712
  474.0      0.002110    402.86667     472.29794
  400.0      0.002500    402.71835     477.83456
  487.0      0.002053    402.57150     482.54279
  457.0      0.002188    402.42627     486.12689
  475.0      0.002105    402.28275     488.33289
  410.0      0.002439    402.14111     488.98495
  425.0      0.002353    402.00101     488.01730
  504.0      0.001984    401.86258     485.48724
  448.0      0.002232    401.72629     481.56329
  386.0      0.002591    401.59152     476.49377
  440.0      0.002273    401.45874     470.56885
  368.0      0.002717    401.32794     464.08612
  402.0      0.002488    401.19919     457.32858
  359.0      0.002786    401.07233     450.54770
  413.0      0.002421    400.94757     443.95688
  444.0      0.002252    400.82489     437.72656
  401.0      0.002494    400.70432     431.98221
  367.0      0.002725    400.58588     426.84192
  393.0      0.002545    400.46976     422.27875
  389.0      0.002571    400.35577     418.33453
  418.0      0.002392    400.24414     414.98883
  407.0      0.002457    400.13495     412.19952
  379.0      0.002639    400.02798     409.97885
  358.0      0.002793    399.92349     408.52054
  434.0      0.002304    399.82138     407.13818
  382.0      0.002618    399.72180     406.12668
  335.0      0.002985    399.62482     405.41376
  447.0      0.002237    399.53040     404.99387
  374.0      0.002674    399.43842     404.86188
  390.0      0.002564    399.34924     405.03137
  413.0      0.002421    399.26276     405.53448
  371.0      0.002695    399.17902     406.62299
  366.0      0.002732    399.09805     407.96814
  398.0      0.002513    399.01984     409.83731
  397.0      0.002519    398.94446     412.30765
  384.0      0.002604    398.87204     415.45023
  409.0      0.002445    398.80255     419.31812
  408.0      0.002451    398.73596     423.93411
  449.0      0.002227    398.67245     429.22241
  428.0      0.002336    398.61197     435.22485
  416.0      0.002404    398.55463     441.75272
  517.0      0.001934    398.50040     448.61328
  430.0      0.002326    398.44928     455.55823
  458.0      0.002183    398.40140     462.29468
  444.0      0.002252    398.35684     468.50391
  530.0      0.001887    398.31543     473.86530
  484.0      0.002066    398.27747     478.08502
  503.0      0.001988    398.24280     480.92761
  519.0      0.001927    398.21158     482.24521
  529.0      0.001890    398.18375     482.00241
  546.0      0.001832    398.15945     480.28268
  488.0      0.002049    398.13864     477.28836
  533.0      0.001876    398.12131     473.31387
  470.0      0.002128    398.10779     468.71646
  565.0      0.001770    398.09775     463.88022
  519.0      0.001927    398.09137     459.18344
  539.0      0.001855    398.08865     454.96930
  505.0      0.001980    398.08978     451.52219
  556.0      0.001799    398.09460     449.05057
  522.0      0.001916    398.10330     447.67578
  557.0      0.001795    398.11581     447.42935
  482.0      0.002075    398.13223     448.25732
  531.0      0.001883    398.15253     450.02921
  504.0      0.001984    398.17682     452.55286
  551.0      0.001815    398.20511     455.59207
  541.0      0.001848    398.23743     458.88470
  523.0      0.001912    398.27374     462.16275
  544.0      0.001838    398.31415     465.17099
  524.0      0.001908    398.35873     467.68774
  494.0      0.002024    398.40744     469.54382
  515.0      0.001942    398.46021     470.63773
  501.0      0.001996    398.51743     470.94263
  468.0      0.002137    398.57880     470.49973
  551.0      0.001815    398.64444     469.44342
  451.0      0.002217    398.71436     467.82397
  494.0      0.002024    398.78857     465.82230
  485.0      0.002062    398.86728     463.73013
  492.0      0.002033    398.95044     461.40115
  469.0      0.002132    399.03787     459.08060
  418.0      0.002392    399.12991     456.85980
  534.0      0.001873    399.22626     454.79214
  419.0      0.002387    399.32718     452.91544
  498.0      0.002008    399.43274     451.24045
  491.0      0.002037    399.54276     449.76025
  507.0      0.001972    399.65747     448.45728
  443.0      0.002257    399.77676     447.31094
  500.0      0.002000    399.90073     446.30530
  544.0      0.001838    400.02927     445.43350
  455.0      0.002198    400.16254     444.70163
  428.0      0.002336    400.30054     444.12613
  489.0      0.002045    400.44318     443.73120
  445.0      0.002247    400.59058     443.54236
  512.0      0.001953    400.74295     443.58002
  476.0      0.002101    400.90005     443.85300
  505.0      0.001980    401.06177     444.35428
  481.0      0.002079    401.22839     445.05856
  548.0      0.001825    401.39999     445.92194
  471.0      0.002123    401.57642     446.88467
  520.0      0.001923    401.75757     447.87509
  521.0      0.001919    401.94379     448.81650
  497.0      0.002012    402.13486     449.63336
  570.0      0.001754    402.33084     450.32816
  485.0      0.002062    402.53171     450.74460
  578.0      0.001730    402.73770     450.88812
  462.0      0.002165    402.94849     450.83508
  497.0      0.002012    403.16425     450.53918
  500.0      0.002000    403.38510     450.07941
  459.0      0.002179    403.61093     449.52737
  528.0      0.001894    403.84152     448.96194
  483.0      0.002070    404.07730     448.47037
  495.0      0.002020    404.31812     448.14609
  471.0      0.002123    404.56400     448.09000
  514.0      0.001946    404.81464     448.41025
  473.0      0.002114    405.07047     449.22211
  444.0      0.002252    405.33142     450.64249
  429.0      0.002331    405.59705     452.78363
  505.0      0.001980    405.86792     455.74542
  454.0      0.002203    406.14386     459.60135
  473.0      0.002114    406.42477     464.38977
  548.0      0.001825    406.71057     470.10071
  444.0      0.002252    407.00143     476.66818
  493.0      0.002028    407.29733     484.22687
  511.0      0.001957    407.59824     492.05634
  460.0      0.002174    407.90384     500.15884
  460.0      0.002174    408.21472     508.22919
  565.0      0.001770    408.53043     515.93036
  442.0      0.002262    408.85089     522.91870
  548.0      0.001825    409.17654     528.87122
  495.0      0.002020    409.50705     533.51288
  504.0      0.001984    409.84250     536.63947
  552.0      0.001812    410.18256     538.13330
  497.0      0.002012    410.52762     537.97180
  598.0      0.001672    410.87766     536.22351
  574.0      0.001742    411.23206     533.03918
  523.0      0.001912    411.59167     528.63477
  609.0      0.001642    411.95593     523.26868
  530.0      0.001887    412.32495     517.21918
  485.0      0.002062    412.69827     510.75986
  498.0      0.002008    413.07663     504.14136
  447.0      0.002237    413.45969     497.57523
  442.0      0.002262    413.84683     491.22644
  514.0      0.001946    414.23907     485.21252
  477.0      0.002096    414.63568     479.60590
  497.0      0.002012    415.03677     474.44168
  464.0      0.002155    415.44199     469.72568
  524.0      0.001908    415.85196     465.44455
  502.0      0.001992    416.26624     461.57150
  449.0      0.002227    416.68481     458.07483
  494.0      0.002024    417.10724     454.92093
  429.0      0.002331    417.53430     452.08044
  507.0      0.001972    417.96548     449.52518
  434.0      0.002304    418.40045     447.23160
  452.0      0.002212    418.83963     445.18024
  416.0      0.002404    419.28293     443.35361
  446.0      0.002242    419.73013     441.73624
  430.0      0.002326    420.18079     440.31418
  420.0      0.002381    420.63559     439.07553
  383.0      0.002611    421.09409     438.02957
  453.0      0.002208    421.55585     437.12247
  396.0      0.002525    422.02161     436.36554
  483.0      0.002070    422.49088     435.74857
  408.0      0.002451    422.96344     435.26242
  412.0      0.002427    423.43912     434.89804
  409.0      0.002445    423.91846     434.87936
  399.0      0.002506    424.40085     434.78101
  388.0      0.002577    424.88599     434.80121
  403.0      0.002481    425.37454     434.94266
  443.0      0.002257    425.86597     435.34546
  367.0      0.002725    426.36026     435.75580
  469.0      0.002132    426.85690     436.31558
  435.0      0.002299    427.35648     437.04346
  442.0      0.002262    427.85864     437.96143
  474.0      0.002110    428.36310     438.87177
  455.0      0.002198    428.86960     440.25278
  464.0      0.002155    429.37860     441.90479
  452.0      0.002212    429.88980     443.85248
  463.0      0.002160    430.40259     446.11304
  494.0      0.002024    430.91760     448.69693
  492.0      0.002033    431.43430     451.59415
  540.0      0.001852    431.95261     454.78323
  533.0      0.001876    432.47205     458.22098
  496.0      0.002016    432.99332     461.84662
  545.0      0.001835    433.51563     465.58069
  542.0      0.001845    434.03873     469.33066
  558.0      0.001792    434.56329     472.99960
  526.0      0.001901    435.08847     476.49124
  517.0      0.001934    435.61438     479.72348
  555.0      0.001802    436.14041     482.63861
  532.0      0.001880    436.66718     485.21643
  550.0      0.001818    437.19427     487.48135
  577.0      0.001733    437.72086     489.50677
  550.0      0.001818    438.24774     491.41147
  559.0      0.001789    438.77444     493.34613
  642.0      0.001558    439.30063     495.47839
  525.0      0.001905    439.82581     497.97214
  554.0      0.001805    440.35056     500.97305
  578.0      0.001730    440.87439     504.58963
  536.0      0.001866    441.39709     508.88354
  582.0      0.001718    441.91797     513.86072
  587.0      0.001704    442.43777     519.47052
  518.0      0.001931    442.95578     525.60370
  586.0      0.001706    443.47159     532.10291
  586.0      0.001706    443.98550     538.77277
  564.0      0.001773    444.49713     545.39337
  588.0      0.001701    445.00623     551.73944
  592.0      0.001689    445.51208     557.59845
  588.0      0.001701    446.01559     562.78796
  578.0      0.001730    446.51559     567.16321
  616.0      0.001623    447.01199     570.62183
  607.0      0.001647    447.50497     573.09998
  609.0      0.001642    447.99423     574.56256
  586.0      0.001706    448.47916     574.99982
  600.0      0.001667    448.95947     574.42297
  624.0      0.001603    449.43546     572.86633
  575.0      0.001739    449.90662     570.38599
  624.0      0.001603    450.37222     567.06555
  589.0      0.001698    450.83279     563.00256
  585.0      0.001709    451.28763     558.31860
  587.0      0.001704    451.73660     553.26172
  600.0      0.001667    452.17896     547.76349
  619.0      0.001616    452.61530     542.04962
  531.0      0.001883    453.04474     536.24963
  566.0      0.001767    453.46701     530.50549
  531.0      0.001883    453.88174     524.88812
  587.0      0.001704    454.28906     519.52063
  559.0      0.001789    454.68851     514.49841
  568.0      0.001761    455.07922     509.90930
  546.0      0.001832    455.46167     505.83319
  568.0      0.001761    455.83521     502.33890
  524.0      0.001908    456.19943     499.48431
  541.0      0.001848    456.55380     497.31076
  563.0      0.001776    456.89856     495.84375
  518.0      0.001931    457.23309     495.08527
  615.0      0.001626    457.55667     495.01245
  562.0      0.001779    457.86960     495.57465
  610.0      0.001639    458.17105     496.69092
  563.0      0.001776    458.46091     498.24918
  643.0      0.001555    458.73834     500.11285
  469.0      0.002132    459.00381     502.11713
  549.0      0.001821    459.25613     504.08835
  555.0      0.001802    459.49527     505.84784
  531.0      0.001883    459.72086     507.61966
  525.0      0.001905    459.93246     508.48322
  517.0      0.001934    460.12958     508.70844
  555.0      0.001802    460.31171     508.22827
  537.0      0.001862    460.47879     507.02652
  504.0      0.001984    460.63007     505.13699
  535.0      0.001869    460.76529     502.63843
  478.0      0.002092    460.88376     499.64462
  470.0      0.002128    460.98547     496.29251
  417.0      0.002398    461.06955     492.72861
  425.0      0.002353    461.13565     488.65121
  435.0      0.002299    461.18344     485.09088
  449.0      0.002227    461.21234     481.70441
  390.0      0.002564    461.22189     478.57532
  369.0      0.002710    461.21161     475.75980
  457.0      0.002188    461.18088     473.28705
  365.0      0.002740    461.12930     471.16254
  449.0      0.002227    461.05655     469.37216
  383.0      0.002611    460.96173     467.88831
  383.0      0.002611    460.84460     466.67435
  413.0      0.002421    460.70441     465.68900
  413.0      0.002421    460.54095     464.89114
  324.0      0.003086    460.35336     464.24115
  385.0      0.002597    460.14117     463.70383
  409.0      0.002445    459.90399     463.24884
  352.0      0.002841    459.64093     462.85013
  420.0      0.002381    459.35159     462.48730
  333.0      0.003003    459.03540     462.14365
  385.0      0.002597    458.69186     461.80652
  342.0      0.002924    458.32007     461.46674
  420.0      0.002381    457.91959     461.11374
  354.0      0.002825    457.48969     460.74274
  431.0      0.002320    457.03018     460.35004
  320.0      0.003125    456.53986     459.93115
  425.0      0.002353    456.01822     458.71564
  366.0      0.002732    455.46515     458.26498
  336.0      0.002976    454.87909     457.78513
  395.0      0.002532    454.25977     457.27805
  390.0      0.002564    453.60657     456.74707
  346.0      0.002890    452.91916     456.19705
  363.0      0.002755    452.19608     455.63251
  416.0      0.002404    451.43695     455.06107
  335.0      0.002985    450.64163     454.49176
  405.0      0.002469    449.80832     453.93411
  353.0      0.002833    448.93674     453.40158
  383.0      0.002611    448.02618     452.91016
  376.0      0.002660    447.07675     452.83057
  401.0      0.002494    446.08603     452.54819
  366.0      0.002732    445.05402     452.40475
  388.0      0.002577    443.98093     452.44531
  367.0      0.002725    442.86398     452.72150
  381.0      0.002625    441.70346     453.29639
  384.0      0.002604    440.49850     454.24045
  434.0      0.002304    439.24915     455.63254
  417.0      0.002398    437.95267     457.55231
  472.0      0.002119    436.60928     460.08298
  430.0      0.002326    435.21796     463.30096
  454.0      0.002203    433.77905     467.27185
  502.0      0.001992    432.28943     472.03986
  484.0      0.002066    430.74927     477.61395
  528.0      0.001894    429.15894     483.97351
  515.0      0.001942    427.51505     491.04446
  533.0      0.001876    425.81799     498.70200
  533.0      0.001876    424.06665     506.76077
  607.0      0.001647    422.26144     515.21490
  573.0      0.001745    420.39890     523.28400
  664.0      0.001506    418.47922     530.84528
  682.0      0.001466    416.50299     537.50378
  680.0      0.001471    414.46609     542.84283
  678.0      0.001475    412.36914     546.46613
  685.0      0.001460    410.21115     548.03400
  690.0      0.001449    407.99274     547.31006
  649.0      0.001541    405.70932     544.19202
  680.0      0.001471    403.36166     538.73553
  606.0      0.001650    400.95053     531.14026
  629.0      0.001590    398.47107     521.71014
  606.0      0.001650    395.92426     510.82239
  555.0      0.001802    393.30875     498.87985
  585.0      0.001709    390.62555     486.28229
  514.0      0.001946    387.86929     473.39569
  506.0      0.001976    385.04111     460.54837
  524.0      0.001908    382.13959     448.01282
  477.0      0.002096    379.16611     436.00436
  503.0      0.001988    376.11462     424.67047
  485.0      0.002062    372.98639     414.10654
  458.0      0.002183    369.78259     404.35434
  467.0      0.002141    366.49704     395.40320
  358.0      0.002793    363.13095     387.21320
  396.0      0.002525    359.68317     379.71680
  411.0      0.002433    356.15500     372.83221
  428.0      0.002336    352.53973     366.46240
  391.0     .            .             .
  410.0     .            .             .
  397.0     .            .             .
  411.0     .            .             .
  377.0     .            .             .
  447.0     .            .             .
  427.0     .            .             .
  384.0     .            .             .
  433.0     .            .             .
  456.0     .            .             .
  427.0     .            .             .
  416.0     .            .             .
  481.0     .            .             .
  407.0     .            .             .
  446.0     .            .             .
  481.0     .            .             .
  410.0     .            .             .
  497.0     .            .             .
  431.0     .            .             .
  472.0     .            .             .
  464.0     .            .             .
  549.0     .            .             .
  497.0     .            .             .
  561.0     .            .             .
  567.0     .            .             .
  604.0     .            .             .
  577.0     .            .             .
  600.0     .            .             .
  588.0     .            .             .
  588.0     .            .             .
  651.0     .            .             .
  607.0     .            .             .
  654.0     .            .             .
  573.0     .            .             .
  620.0     .            .             .
  552.0     .            .             .
  601.0     .            .             .
  504.0     .            .             .
  582.0     .            .             .
  539.0     .            .             .
  513.0     .            .             .
  521.0     .            .             .
  493.0     .            .             .
  553.0     .            .             .
  464.0     .            .             .
  530.0     .            .             .
  515.0     .            .             .
  507.0     .            .             .
  458.0     .            .             .
  469.0     .            .             .
  489.0     .            .             .
  489.0     .            .             .
  504.0     .            .             .
  579.0     .            .             .
  516.0     .            .             .
  534.0     .            .             .
  492.0     .            .             .
  505.0     .            .             .
  491.0     .            .             .
  439.0     .            .             .
  522.0     .            .             .
  520.0     .            .             .
  463.0     .            .             .
  561.0     .            .             .
  454.0     .            .             .
  525.0     .            .             .
  491.0     .            .             .
  524.0     .            .             .
  483.0     .            .             .
  503.0     .            .             .
  479.0     .            .             .
  464.0     .            .             .
  512.0     .            .             .
  469.0     .            .             .
  471.0     .            .             .
  451.0     .            .             .
  494.0     .            .             .
  513.0     .            .             .
  540.0     .            .             .
  486.0     .            .             .
  480.0     .            .             .
  503.0     .            .             .
  479.0     .            .             .
  560.0     .            .             .
  510.0     .            .             .
  550.0     .            .             .
  576.0     .            .             .
  569.0     .            .             .
  541.0     .            .             .
  589.0     .            .             .
  522.0     .            .             .
  546.0     .            .             .
  531.0     .            .             .
  530.0     .            .             .
  541.0     .            .             .
  533.0     .            .             .
  529.0     .            .             .
  587.0     .            .             .
  539.0     .            .             .
  579.0     .            .             .
  591.0     .            .             .
  541.0     .            .             .
  661.0     .            .             .
  603.0     .            .             .
  598.0     .            .             .
  656.0     .            .             .
  696.0     .            .             .
  594.0     .            .             .
  665.0     .            .             .
  612.0     .            .             .
  604.0     .            .             .
  612.0     .            .             .
  609.0     .            .             .
  605.0     .            .             .
  589.0     .            .             .
  633.0     .            .             .
  535.0     .            .             .
  591.0     .            .             .
  574.0     .            .             .
  548.0     .            .             .
  601.0     .            .             .
  573.0     .            .             .
  565.0     .            .             .
  544.0     .            .             .
  544.0     .            .             .
  540.0     .            .             .
  534.0     .            .             .
  539.0     .            .             .
  501.0     .            .             .
  514.0     .            .             .
  566.0     .            .             .
  523.0     .            .             .
  500.0     .            .             .
  547.0     .            .             .
  496.0     .            .             .
  562.0     .            .             .
  420.0     .            .             .
  579.0     .            .             .
  436.0     .            .             .
  469.0     .            .             .
  493.0     .            .             .
  512.0     .            .             .
  462.0     .            .             .
  456.0     .            .             .
  493.0     .            .             .
  441.0     .            .             .
  447.0     .            .             .
  438.0     .            .             .
  500.0     .            .             .
  447.0     .            .             .
  511.0     .            .             .
  498.0     .            .             .
  508.0     .            .             .
  442.0     .            .             .
  476.0     .            .             .
  466.0     .            .             .
  456.0     .            .             .
  500.0     .            .             .
  409.0     .            .             .
  476.0     .            .             .
  467.0     .            .             .
  478.0     .            .             .
  442.0     .            .             .
  384.0     .            .             .
  402.0     .            .             .
  440.0     .            .             .
  444.0     .            .             .
  427.0     .            .             .
  440.0     .            .             .
  444.0     .            .             .
  457.0     .            .             .
  465.0     .            .             .
  522.0     .            .             .
  452.0     .            .             .
  525.0     .            .             .
  528.0     .            .             .
  489.0     .            .             .
  484.0     .            .             .
  519.0     .            .             .
  469.0     .            .             .
  504.0     .            .             .
  537.0     .            .             .
  540.0     .            .             .
  516.0     .            .             .
  581.0     .            .             .
  542.0     .            .             .
  574.0     .            .             .
  521.0     .            .             .
  612.0     .            .             .
  573.0     .            .             .
  590.0     .            .             .
  573.0     .            .             .
  501.0     .            .             .
  539.0     .            .             .
  523.0     .            .             .
  467.0     .            .             .
  544.0     .            .             .
  507.0     .            .             .
  488.0     .            .             .
  490.0     .            .             .
  483.0     .            .             .
  465.0     .            .             .
  472.0     .            .             .
  422.0     .            .             .
  424.0     .            .             .
  422.0     .            .             .
  462.0     .            .             .
  398.0     .            .             .
  467.0     .            .             .
  456.0     .            .             .
  487.0     .            .             .
  381.0     .            .             .
  475.0     .            .             .
  387.0     .            .             .
  476.0     .            .             .
  441.0     .            .             .
  543.0     .            .             .
  407.0     .            .             .
  568.0     .            .             .
  466.0     .            .             .
  467.0     .            .             .
  471.0     .            .             .
  472.0     .            .             .
  475.0     .            .             .
  458.0     .            .             .
  497.0     .            .             .
  506.0     .            .             .
  450.0     .            .             .
  519.0     .            .             .
  498.0     .            .             .
  535.0     .            .             .
  540.0     .            .             .
  560.0     .            .             .
  531.0     .            .             .
  549.0     .            .             .
  557.0     .            .             .
  536.0     .            .             .
  479.0     .            .             .
  519.0     .            .             .
  518.0     .            .             .
  496.0     .            .             .
  511.0     .            .             .
  477.0     .            .             .
  524.0     .            .             .
  514.0     .            .             .
  461.0     .            .             .
  540.0     .            .             .
  457.0     .            .             .
  538.0     .            .             .
  478.0     .            .             .
  488.0     .            .             .
  456.0     .            .             .
  464.0     .            .             .
  478.0     .            .             .
  508.0     .            .             .
  463.0     .            .             .
  518.0     .            .             .
  477.0     .            .             .
  434.0     .            .             .
  462.0     .            .             .
  470.0     .            .             .
  432.0     .            .             .
  440.0     .            .             .
  479.0     .            .             .
  439.0     .            .             .
  409.0     .            .             .
  450.0     .            .             .
  445.0     .            .             .
  424.0     .            .             .
  476.0     .            .             .
  447.0     .            .             .
  491.0     .            .             .
  455.0     .            .             .
  460.0     .            .             .
  432.0     .            .             .
  452.0     .            .             .
  464.0     .            .             .
  456.0     .            .             .
  475.0     .            .             .
  470.0     .            .             .
  483.0     .            .             .
  404.0     .            .             .
  488.0     .            .             .
  447.0     .            .             .
  488.0     .            .             .
  421.0     .            .             .
  545.0     .            .             .
  459.0     .            .             .
  476.0     .            .             .
  419.0     .            .             .
  507.0     .            .             .
  431.0     .            .             .
  465.0     .            .             .
  495.0     .            .             .
  478.0     .            .             .
  495.0     .            .             .
  505.0     .            .             .
  437.0     .            .             .
  436.0     .            .             .
  436.0     .            .             .
  462.0     .            .             .
  492.0     .            .             .
  502.0     .            .             .
  498.0     .            .             .
  489.0     .            .             .
  480.0     .            .             .
  441.0     .            .             .
  503.0     .            .             .
  466.0     .            .             .
  521.0     .            .             .
  510.0     .            .             .
  541.0     .            .             .
  493.0     .            .             .
  514.0     .            .             .
  509.0     .            .             .
  551.0     .            .             .
  523.0     .            .             .
  610.0     .            .             .
  519.0     .            .             .
  570.0     .            .             .
  561.0     .            .             .
  581.0     .            .             .
  503.0     .            .             .
  577.0     .            .             .
  560.0     .            .             .
  513.0     .            .             .
  484.0     .            .             .
  484.0     .            .             .
  534.0     .            .             .
  488.0     .            .             .
  481.0     .            .             .
  491.0     .            .             .
  496.0     .            .             .
  475.0     .            .             .
  478.0     .            .             .
  458.0     .            .             .
  538.0     .            .             .
  469.0     .            .             .
  511.0     .            .             .
  579.0     .            .             .
  529.0     .            .             .
  513.0     .            .             .
  508.0     .            .             .
  504.0     .            .             .
  502.0     .            .             .
  543.0     .            .             .
  517.0     .            .             .
  522.0     .            .             .
  516.0     .            .             .
  494.0     .            .             .
  512.0     .            .             .
  540.0     .            .             .
  515.0     .            .             .
  537.0     .            .             .
  537.0     .            .             .
  512.0     .            .             .
  545.0     .            .             .
  548.0     .            .             .
  544.0     .            .             .
  507.0     .            .             .
  534.0     .            .             .
  467.0     .            .             .
  563.0     .            .             .
  520.0     .            .             .
  491.0     .            .             .
  519.0     .            .             .
  499.0     .            .             .
  539.0     .            .             .
  481.0     .            .             .
  456.0     .            .             .
  513.0     .            .             .
  442.0     .            .             .
  490.0     .            .             .
  445.0     .            .             .
  502.0     .            .             .
  446.0     .            .             .
  542.0     .            .             .
  489.0     .            .             .
  489.0     .            .             .
  528.0     .            .             .
  542.0     .            .             .
  533.0     .            .             .
  561.0     .            .             .
  512.0     .            .             .
  562.0     .            .             .
  543.0     .            .             .
  556.0     .            .             .
  537.0     .            .             .
  566.0     .            .             .
  585.0     .            .             .
  514.0     .            .             .
  516.0     .            .             .
  565.0     .            .             .
  452.0     .            .             .
  523.0     .            .             .
  470.0     .            .             .
  471.0     .            .             .
  479.0     .            .             .
  520.0     .            .             .
  519.0     .            .             .
  505.0     .            .             .
  463.0     .            .             .
  570.0     .            .             .
  507.0     .            .             .
  556.0     .            .             .
  556.0     .            .             .
  511.0     .            .             .
  523.0     .            .             .
  535.0     .            .             .
  529.0     .            .             .
  515.0     .            .             .
  498.0     .            .             .
  538.0     .            .             .
  505.0     .            .             .
  410.0     .            .             .
  514.0     .            .             .
  436.0     .            .             .
  475.0     .            .             .
  488.0     .            .             .
  395.0     .            .             .
  457.0     .            .             .
  449.0     .            .             .
  441.0     .            .             .
  399.0     .            .             .
  416.0     .            .             .
  406.0     .            .             .
  403.0     .            .             .
  413.0     .            .             .
  467.0     .            .             .
  391.0     .            .             .
  422.0     .            .             .
  395.0     .            .             .
  432.0     .            .             .
  425.0     .            .             .
  393.0     .            .             .
  414.0     .            .             .
  399.0     .            .             .
  416.0     .            .             .
  458.0     .            .             .
  387.0     .            .             .
  469.0     .            .             .
  416.0     .            .             .
  469.0     .            .             .
  473.0     .            .             .
  400.0     .            .             .
  487.0     .            .             .
  494.0     .            .             .
  464.0     .            .             .
  477.0     .            .             .
  505.0     .            .             .
  475.0     .            .             .
  523.0     .            .             .
  519.0     .            .             .
  552.0     .            .             .
  516.0     .            .             .
  522.0     .            .             .
  545.0     .            .             .
  478.0     .            .             .
  620.0     .            .             .
  504.0     .            .             .
  534.0     .            .             .
  561.0     .            .             .
  542.0     .            .             .
  492.0     .            .             .
  448.0     .            .             .
  476.0     .            .             .
  480.0     .            .             .
  440.0     .            .             .
  451.0     .            .             .
  414.0     .            .             .
  434.0     .            .             .
  437.0     .            .             .
  398.0     .            .             .
  449.0     .            .             .
  412.0     .            .             .
  408.0     .            .             .
  384.0     .            .             .
  432.0     .            .             .
  426.0     .            .             .
  398.0     .            .             .
  406.0     .            .             .
  424.0     .            .             .
  376.0     .            .             .
  446.0     .            .             .
  397.0     .            .             .
  369.0     .            .             .
  357.0     .            .             .
  434.0     .            .             .
  381.0     .            .             .
  381.0     .            .             .
  428.0     .            .             .
  405.0     .            .             .
  409.0     .            .             .
  335.0     .            .             .
  434.0     .            .             .
  333.0     .            .             .
  432.0     .            .             .
  354.0     .            .             .
  433.0     .            .             .
  365.0     .            .             .
  391.0     .            .             .
  405.0     .            .             .
  419.0     .            .             .
  467.0     .            .             .
  445.0     .            .             .
  428.0     .            .             .
  478.0     .            .             .
  453.0     .            .             .
  392.0     .            .             .
  495.0     .            .             .
  427.0     .            .             .
  427.0     .            .             .
  480.0     .            .             .
  468.0     .            .             .
  452.0     .            .             .
  529.0     .            .             .
  471.0     .            .             .
  504.0     .            .             .
  495.0     .            .             .
  485.0     .            .             .
  528.0     .            .             .
  530.0     .            .             .
  466.0     .            .             .
  506.0     .            .             .
  503.0     .            .             .
  484.0     .            .             .
  477.0     .            .             .
  500.0     .            .             .
  479.0     .            .             .
  457.0     .            .             .
  473.0     .            .             .
  502.0     .            .             .
  479.0     .            .             .
  451.0     .            .             .
  506.0     .            .             .
  478.0     .            .             .
  506.0     .            .             .
  461.0     .            .             .
  502.0     .            .             .
  483.0     .            .             .
  517.0     .            .             .
  427.0     .            .             .
  520.0     .            .             .
  430.0     .            .             .
  443.0     .            .             .
  483.0     .            .             .
  445.0     .            .             .
  375.0     .            .             .
  461.0     .            .             .
  439.0     .            .             .
  392.0     .            .             .
  421.0     .            .             .
  440.0     .            .             .
  410.0     .            .             .
  421.0     .            .             .
  440.0     .            .             .
  375.0     .            .             .
  384.0     .            .             .
  443.0     .            .             .
  414.0     .            .             .
  452.0     .            .             .
  392.0     .            .             .
  457.0     .            .             .
  430.0     .            .             .
  481.0     .            .             .
  417.0     .            .             .
  452.0     .            .             .
  415.0     .            .             .
  403.0     .            .             .
  400.0     .            .             .
  434.0     .            .             .
  372.0     .            .             .
  474.0     .            .             .
  387.0     .            .             .
  357.0     .            .             .
  453.0     .            .             .
  426.0     .            .             .
  365.0     .            .             .
  455.0     .            .             .
  409.0     .            .             .
  427.0     .            .             .
  409.0     .            .             .
  377.0     .            .             .
  432.0     .            .             .
  363.0     .            .             .
  413.0     .            .             .
  446.0     .            .             .
  377.0     .            .             .
  385.0     .            .             .
  387.0     .            .             .
  393.0     .            .             .
  341.0     .            .             .
  368.0     .            .             .
  413.0     .            .             .
  362.0     .            .             .
  390.0     .            .             .
  406.0     .            .             .
  400.0     .            .             .
  411.0     .            .             .
  383.0     .            .             .
  452.0     .            .             .
  396.0     .            .             .
  428.0     .            .             .
  394.0     .            .             .
  474.0     .            .             .
  404.0     .            .             .
  393.0     .            .             .
  485.0     .            .             .
  389.0     .            .             .
  417.0     .            .             .
  372.0     .            .             .
  407.0     .            .             .
  371.0     .            .             .
  425.0     .            .             .
  382.0     .            .             .
  393.0     .            .             .
  371.0     .            .             .
  409.0     .            .             .
  383.0     .            .             .
  371.0     .            .             .
  358.0     .            .             .
  407.0     .            .             .
  418.0     .            .             .
  422.0     .            .             .
  375.0     .            .             .
  371.0     .            .             .
  429.0     .            .             .
  364.0     .            .             .
  474.0     .            .             .
  379.0     .            .             .
  363.0     .            .             .
  460.0     .            .             .
  439.0     .            .             .
  376.0     .            .             .
  499.0     .            .             .
  423.0     .            .             .
  424.0     .            .             .
  540.0     .            .             .
  523.0     .            .             .
  460.0     .            .             .
  576.0     .            .             .
  539.0     .            .             .
  540.0     .            .             .
  513.0     .            .             .
  547.0     .            .             .
  601.0     .            .             .
  538.0     .            .             .
  541.0     .            .             .
  549.0     .            .             .
  495.0     .            .             .
  538.0     .            .             .
  510.0     .            .             .
  518.0     .            .             .
  474.0     .            .             .
  514.0     .            .             .
  417.0     .            .             .
  433.0     .            .             .
  412.0     .            .             .
  443.0     .            .             .
  404.0     .            .             .
  411.0     .            .             .
  404.0     .            .             .
  419.0     .            .             .
  349.0     .            .             .
  410.0     .            .             .
  433.0     .            .             .
  347.0     .            .             .
  502.0     .            .             .
  351.0     .            .             .
  426.0     .            .             .
  410.0     .            .             .
  410.0     .            .             .
  387.0     .            .             .
  400.0     .            .             .
  426.0     .            .             .
  450.0     .            .             .
  420.0     .            .             .
  408.0     .            .             .
  421.0     .            .             .
  474.0     .            .             .
  437.0     .            .             .
  491.0     .            .             .
  436.0     .            .             .
  477.0     .            .             .
  481.0     .            .             .
  573.0     .            .             .
  532.0     .            .             .
  524.0     .            .             .
  584.0     .            .             .
  558.0     .            .             .
  608.0     .            .             .
  607.0     .            .             .
  546.0     .            .             .
  582.0     .            .             .
  574.0     .            .             .
  549.0     .            .             .
  595.0     .            .             .
  530.0     .            .             .
  585.0     .            .             .
  520.0     .            .             .
  503.0     .            .             .
  531.0     .            .             .
  544.0     .            .             .
  476.0     .            .             .
  520.0     .            .             .
  448.0     .            .             .
  511.0     .            .             .
  465.0     .            .             .
  435.0     .            .             .
  443.0     .            .             .
  489.0     .            .             .
  420.0     .            .             .
  417.0     .            .             .
  520.0     .            .             .
  379.0     .            .             .
  441.0     .            .             .
  433.0     .            .             .
  458.0     .            .             .
  466.0     .            .             .
  413.0     .            .             .
  401.0     .            .             .
  427.0     .            .             .
  395.0     .            .             .
  388.0     .            .             .
  439.0     .            .             .
  414.0     .            .             .
  459.0     .            .             .
  405.0     .            .             .
  445.0     .            .             .
  437.0     .            .             .
  462.0     .            .             .
  402.0     .            .             .
  454.0     .            .             .
  448.0     .            .             .
  433.0     .            .             .
  385.0     .            .             .
  428.0     .            .             .
  437.0     .            .             .
  416.0     .            .             .
  407.0     .            .             .
  460.0     .            .             .
  443.0     .            .             .
  421.0     .            .             .
  485.0     .            .             .
  374.0     .            .             .
  454.0     .            .             .
  436.0     .            .             .
  385.0     .            .             .
  444.0     .            .             .
  396.0     .            .             .
  459.0     .            .             .
  394.0     .            .             .
  438.0     .            .             .
  388.0     .            .             .
  415.0     .            .             .
  404.0     .            .             .
  470.0     .            .             .
  387.0     .            .             .
  458.0     .            .             .
  419.0     .            .             .
  390.0     .            .             .
  442.0     .            .             .
  435.0     .            .             .
  400.0     .            .             .
  364.0     .            .             .
  445.0     .            .             .
  400.0     .            .             .
  431.0     .            .             .
  408.0     .            .             .
  362.0     .            .             .
  425.0     .            .             .
  391.0     .            .             .
  455.0     .            .             .
  441.0     .            .             .
  437.0     .            .             .
  456.0     .            .             .
  443.0     .            .             .
  420.0     .            .             .
  397.0     .            .             .
  397.0     .            .             .
  465.0     .            .             .
  407.0     .            .             .
  448.0     .            .             .
  427.0     .            .             .
  495.0     .            .             .
  407.0     .            .             .
  491.0     .            .             .
  433.0     .            .             .
  466.0     .            .             .
  474.0     .            .             .
  435.0     .            .             .
  492.0     .            .             .
  457.0     .            .             .
  445.0     .            .             .
  479.0     .            .             .
  457.0     .            .             .
  393.0     .            .             .
  434.0     .            .             .
  406.0     .            .             .
  428.0     .            .             .
  453.0     .            .             .
  446.0     .            .             .
  403.0     .            .             .
  402.0     .            .             .
  435.0     .            .             .
  459.0     .            .             .
  418.0     .            .             .
  466.0     .            .             .
  385.0     .            .             .
  526.0     .            .             .
  427.0     .            .             .
  429.0     .            .             .
  477.0     .            .             .
  490.0     .            .             .
  472.0     .            .             .
  486.0     .            .             .
  452.0     .            .             .
  439.0     .            .             .
  465.0     .            .             .
  463.0     .            .             .
  459.0     .            .             .
  479.0     .            .             .
  473.0     .            .             .
  422.0     .            .             .
  468.0     .            .             .
  420.0     .            .             .
  509.0     .            .             .
  454.0     .            .             .
  521.0     .            .             .
  510.0     .            .             .
  469.0     .            .             .
  577.0     .            .             .
  443.0     .            .             .
  551.0     .            .             .
  475.0     .            .             .
  509.0     .            .             .
  479.0     .            .             .
  454.0     .            .             .
  515.0     .            .             .
  466.0     .            .             .
  481.0     .            .             .
  450.0     .            .             .
  472.0     .            .             .
  448.0     .            .             .
  478.0     .            .             .
  444.0     .            .             .
  468.0     .            .             .
  442.0     .            .             .
  438.0     .            .             .
  431.0     .            .             .
  407.0     .            .             .
  448.0     .            .             .
  400.0     .            .             .
  425.0     .            .             .
  381.0     .            .             .
  369.0     .            .             .
  374.0     .            .             .
  400.0     .            .             .
  332.0     .            .             .
  435.0     .            .             .
  367.0     .            .             .
  398.0     .            .             .
  386.0     .            .             .
  415.0     .            .             .
  399.0     .            .             .
  370.0     .            .             .
  399.0     .            .             .
  407.0     .            .             .
  367.0     .            .             .
  466.0     .            .             .
  340.0     .            .             .
  369.0     .            .             .
  376.0     .            .             .
  365.0     .            .             .
  404.0     .            .             .
  377.0     .            .             .
  400.0     .            .             .
  399.0     .            .             .
  403.0     .            .             .
  386.0     .            .             .
  424.0     .            .             .
  434.0     .            .             .
  412.0     .            .             .
  379.0     .            .             .
  354.0     .            .             .
  412.0     .            .             .
  379.0     .            .             .
  400.0     .            .             .
  382.0     .            .             .
  383.0     .            .             .
  385.0     .            .             .
  372.0     .            .             .
  415.0     .            .             .
  406.0     .            .             .
  381.0     .            .             .
  441.0     .            .             .
  411.0     .            .             .
  400.0     .            .             .
  436.0     .            .             .
  425.0     .            .             .
  388.0     .            .             .
  405.0     .            .             .
  372.0     .            .             .
  386.0     .            .             .
  435.0     .            .             .
  471.0     .            .             .
  356.0     .            .             .
  412.0     .            .             .
  352.0     .            .             .
  431.0     .            .             .
  348.0     .            .             .
  383.0     .            .             .
  394.0     .            .             .
  402.0     .            .             .
  370.0     .            .             .
  340.0     .            .             .
  420.0     .            .             .
  342.0     .            .             .
  354.0     .            .             .
  365.0     .            .             .
  384.0     .            .             .
  354.0     .            .             .
  330.0     .            .             .
  358.0     .            .             .
  357.0     .            .             .
  360.0     .            .             .
  326.0     .            .             .
  378.0     .            .             .
  373.0     .            .             .
  371.0     .            .             .
  348.0     .            .             .
  397.0     .            .             .
  422.0     .            .             .
  332.0     .            .             .
  377.0     .            .             .
  360.0     .            .             .
  340.0     .            .             .
  381.0     .            .             .
  402.0     .            .             .
  359.0     .            .             .
  388.0     .            .             .
  410.0     .            .             .
  402.0     .            .             .
  415.0     .            .             .
  410.0     .            .             .
  363.0     .            .             .
  398.0     .            .             .
  451.0     .            .             .
  390.0     .            .             .
  469.0     .            .             .
  401.0     .            .             .
  411.0     .            .             .
  459.0     .            .             .
  393.0     .            .             .
  465.0     .            .             .
  423.0     .            .             .
  475.0     .            .             .
  466.0     .            .             .
  473.0     .            .             .
  478.0     .            .             .
  510.0     .            .             .
  437.0     .            .             .
  500.0     .            .             .
  518.0     .            .             .
  489.0     .            .             .
  489.0     .            .             .
  497.0     .            .             .
  503.0     .            .             .
  494.0     .            .             .
  517.0     .            .             .
  420.0     .            .             .
  481.0     .            .             .
  439.0     .            .             .
  486.0     .            .             .
  453.0     .            .             .
  457.0     .            .             .
  475.0     .            .             .
  423.0     .            .             .
  466.0     .            .             .
  465.0     .            .             .
  418.0     .            .             .
  465.0     .            .             .
  400.0     .            .             .
  422.0     .            .             .
  426.0     .            .             .
  446.0     .            .             .
  391.0     .            .             .
  446.0     .            .             .
  399.0     .            .             .
  394.0     .            .             .
  441.0     .            .             .
  386.0     .            .             .
  400.0     .            .             .
  404.0     .            .             .
  386.0     .            .             .
  369.0     .            .             .
  378.0     .            .             .
  379.0     .            .             .
  392.0     .            .             .
  340.0     .            .             .
  340.0     .            .             .
  368.0     .            .             .
  339.0     .            .             .
  365.0     .            .             .
  370.0     .            .             .
  360.0     .            .             .
  338.0     .            .             .
  419.0     .            .             .
  375.0     .            .             .
  408.0     .            .             .
  328.0     .            .             .
  401.0     .            .             .
  317.0     .            .             .
  374.0     .            .             .
  306.0     .            .             .
  320.0     .            .             .
  414.0     .            .             .
  351.0     .            .             .
  356.0     .            .             .
  327.0     .            .             .
  368.0     .            .             .
  348.0     .            .             .
  411.0     .            .             .
  359.0     .            .             .
  339.0     .            .             .
  431.0     .            .             .
  347.0     .            .             .
  390.0     .            .             .
  361.0     .            .             .
  372.0     .            .             .
  353.0     .            .             .
  389.0     .            .             .
  319.0     .            .             .
  391.0     .            .             .
  360.0     .            .             .
  425.0     .            .             .
  366.0     .            .             .
  389.0     .            .             .
  325.0     .            .             .
  389.0     .            .             .
  370.0     .            .             .
  406.0     .            .             .
  377.0     .            .             .
  412.0     .            .             .
  347.0     .            .             .
  352.0     .            .             .
  364.0     .            .             .
  422.0     .            .             .
  359.0     .            .             .
  375.0     .            .             .
  379.0     .            .             .
  389.0     .            .             .
  373.0     .            .             .
  375.0     .            .             .
  460.0     .            .             .
  355.0     .            .             .
  399.0     .            .             .
  364.0     .            .             .
  380.0     .            .             .
  390.0     .            .             .
  380.0     .            .             .
  396.0     .            .             .
  363.0     .            .             .
  406.0     .            .             .
  387.0     .            .             .
  333.0     .            .             .
  379.0     .            .             .
   0.0      .            .             .
   0.0      .            .             .
_pd_meas_number_of_points              7665
_pd_proc_number_of_points              7665

loop_
      _refln_index_h
      _refln_index_k
      _refln_index_l
      _pd_refln_phase_id
      _refln_observed_status
      _refln_F_squared_meas
      _refln_F_squared_calc
      _refln_phase_calc
      _refln_d_spacing
      _gsas_i100_meas
   1   0  -1  1 o  257.497     1.147     121.26   8.17845   0.70
   0   0   2  2 o  21.600      7.294     41.45    8.17832   0.05
   2   0   1  2 o  1068.183   504.915   -172.85   5.89857   1.99
   2   0   0  2 o  216.998    316.594    180.00   6.32411   0.25
   2   0   2  2 o  973.426    243.291    78.06    5.00284   1.43
   1   0   1  1 o  2132.241   1534.783  -49.28    5.93380  10.55
   2   0   0  1 o  2029.220   1570.353  -133.03   5.86331  12.71
   2   0   3  2 o  6875.692   5371.162   34.81    4.12943   6.30
   0   0   2  1 o  2357.804   2292.399  -82.12    4.16612   3.72
   0   1   0  1 o -11.287     112.531     0.00    4.03880   0.07
   3   0  -1  1 o  1628.532   1677.465   62.93    4.09354   3.00
   2   0  -2  1 o  7360.472   7564.147   38.98    4.08922   4.27
   0   0   4  2 o  33677.441  33626.301 -140.02   4.08916  15.59
   0   1   0  2 o -24.915     137.026     0.00    4.03514   0.00
   1   1   0  1 o  12700.012  11531.807 -116.98   3.81866  78.43
   1   1   0  2 o  23177.074  20101.918   0.00    3.84425  11.66
   0   1   1  1 o  613.253    512.315   -59.91    3.63435   3.78
   1   1   1  2 o  6666.543   5868.815   173.63   3.74228   6.51
   2   0   4  2 o  1811.414   547.453    95.06    3.43386   1.18
   1   1  -1  1 o  3703.932   3531.109   105.13   3.62130  16.51
   0   1   2  2 o  27578.078  26952.232  15.60    3.61865  10.79
   1   1   2  2 o  781.941    635.726    135.96   3.47906   0.69
   2   1   0  2 o  1062.241   885.384     0.00    3.40168   0.57
   1   1   1  1 o  23882.486  24506.449  58.39    3.33879 100.00
   2   1   1  2 o  91582.77   93621.07   13.21    3.33042  86.14
   2   1   0  1 o  21245.080  21829.180  -7.47    3.32608  61.32
   2   1  -1  1 o  1930.650   2056.678   16.10    3.30868   4.68
   4   0   1  2 o  1446.876   1701.427  -43.58    3.10457   0.72
   4   0   0  2 o  204799.45  210582.56  180.00   3.16205  50.63
   2   1   2  2 o  999.063    1313.719   176.89   3.14082   0.87
   1   1   3  2 o  1039.873   1307.984  -171.02   3.14181   0.65
   3   0   1  1 o  49105.12   50996.32   46.11    3.16184  73.53
   4   0   2  2 o  11859.941  11885.254 -158.06   2.94928   4.91
   2   0   5  2 o  178819.34  185057.55  51.79    2.90561  74.01
   1   1  -2  1 o  860.776    884.820   -37.05    2.97823   1.70
   2   0   2  1 o  2731.086   3385.819  -117.81   2.96690   2.79
   1   0  -3  1 o  47417.61   48141.96   159.12   2.92690  20.13
   0   1   2  1 o  12296.335  12367.644 -61.23    2.89983  29.84
   2   1   3  2 o  66072.27   68466.54   32.03    2.88603  42.62
   4   0   0  1 o  5945.103   5978.583   114.77   2.93166   7.77
   3   1   0  2 o  5076.521   5183.218    0.00    2.91514   2.03
   2   1   1  1 o  3556.350   3698.880  -42.61    2.90807   7.97
   4   0  -2  1 o  46840.48   49017.04  -150.18   2.88476  28.10
   4   0   3  2 o  5240.729   2184.985  -136.74   2.73533   1.92
   2   1  -2  1 o  12852.668  13330.158 -143.26   2.87352  17.83
   0   1   4  2 o  45321.36   46812.98   37.75    2.87218  13.11
   3   1   1  2 o  1674.761   1741.377   -5.98    2.86992   1.26
   3   1  -1  1 o  12167.290  12564.294  91.34    2.87502  15.00
   1   1   4  2 o  583.053    612.303    95.09    2.80088   0.34
   3   1   0  1 o  380.062    464.733    68.62    2.80880   0.53
   3   1   2  2 o  3850.832   2187.968   60.86    2.74591   2.51
   3   0  -3  1 o  1318.880   538.062    153.78   2.72615   0.32
   0   0   6  2 o  8060.638   3760.739  -109.41   2.72611   1.50
   1   1   2  1 o  4797.384   3970.158  -164.02   2.67603   9.79
   2   1   4  2 o  1754.968   1153.036   62.05    2.61511   0.96
   3   1  -2  1 o  2626.526   2391.877   144.23   2.63508   2.17
   4   0   4  2 o  50211.00   47252.65   40.90    2.50142  13.52
   3   1   3  2 o  2990.147   3453.270   22.91    2.57075   1.60
   2   0   6  2 o  1475.429   1365.124  -133.13   2.50342   0.44
   1   0   3  1 o  9482.953   10506.674   1.43    2.52312   5.43
   1   1   5  2 o  4342.724   4680.643  -118.83   2.49136   1.93
   4   1   0  2 o   7.005      8.340     180.00   2.48890   0.00
   3   1   1  1 o  1727.940   1882.118  -64.20    2.48966   2.07
   5   0  -1  1 o  8189.403   7526.891   83.11    2.48010   5.55
   4   1   1  2 o  1424.235   1496.881  -30.36    2.46058   0.78
   4   1  -1  1 o  1108.833   1173.051  -14.90    2.46064   0.83
   3   1   4  2 o  724.444    720.864    111.21   2.37371   0.32
   4   1   2  2 o  20326.020  21624.326 -162.80   2.38108   9.29
   2   1   5  2 o  222.454    230.796   -139.69   2.35791   0.07
   2   1   2  1 o  4128.887   4481.414  -79.04    2.39108   5.40
   1   1  -3  1 o  496.138    480.034   -44.46    2.36999   0.41
   2   1  -3  1 o  4197.390   4909.678   57.43    2.35915   2.70
   4   1   0  1 o  4907.637   5271.398   130.81   2.37251   4.29
   4   0   5  2 o  2476.198   3838.507   68.16    2.27356   0.56
   4   1  -2  1 o  414.344    388.924    63.32    2.34745   0.20
   4   1   3  2 o  762.170    765.604   -126.59   2.26415   0.33
   0   1   3  1 o  1001.405   1196.807   73.51    2.28851   1.03
   0   1   6  2 o  91698.04   79478.32  -115.11   2.25891  15.55
   3   1  -3  1 o  19916.299  17040.656  151.07   2.25958   8.67
   1   1   6  2 o  60.155     1405.807  -126.18   2.22372   0.00
   2   0   7  2 o  3273.765   3185.208   73.62    2.19183   0.58
   3   1   5  2 o  390.069    687.156    61.96    2.17639   0.11
   2   0  -4  1 o  1051.577   960.177   -33.85    2.20462   0.15
   5   0  -3  1 o  1213.539   1674.091  -82.24    2.17930   0.27
   4   1   4  2 o  44446.73   31811.697 -144.16   2.12605  14.31
   2   1   6  2 o  835.410    600.143   -138.81   2.12728   0.26
   1   1   3  1 o  10772.970  9228.574  -146.30   2.13987  10.00
   5   1   0  2 o  1288.756   1040.288  -180.00   2.14330   0.21
   5   1   1  2 o  2913.665   2157.320  -22.34    2.12513   1.02
   4   0   6  2 o  1993.822   1080.601   73.96    2.06472   0.31
   4   1   1  1 o  3435.598   2733.478  -73.80    2.13706   2.66
   6   0   1  2 o  8308.728   6302.265    9.71    2.09074   1.30
   6   0   0  2 o  3196.664   2172.378   180.00   2.10804   0.27
   5   1  -1  1 o  13795.091  10372.180 -77.67    2.11344   7.32
   3   1   2  1 o  246.466    170.008    107.59   2.10950   0.22
   5   1   2  2 o  2598.018   3449.596  -145.74   2.07328   0.83
   4   1  -3  1 o  186.183    156.167    70.35    2.10078   0.06
   4   0   2  1 o  2052.232   1812.990  -23.73    2.09533   0.84
   0   0   4  1 o  734.484    642.244   -139.33   2.08306   0.19
   6   0   2  2 o  3266.358   2544.672  -14.40    2.04131   0.49
   5   0   1  1 o  2447.626   2062.010  -123.22   2.08592   1.18
   5   1  -2  1 o  3025.110   4167.456   99.76    2.06960   1.12
   0   0   8  2 o  4402.742   2933.708  -87.06    2.04458   0.32
   6   0  -2  1 o  393.602    235.987    171.03   2.04677   0.12
   4   0  -4  1 o  1466.999   1034.479  -97.80    2.04461   0.14
   0   2   0  1 o  13162.892  12159.972   0.00    2.01940   8.67
   5   1   3  2 o  1811.864   1663.194   10.14    1.99471   0.46
   5   1   0  1 o  4062.152   4487.002   21.39    2.02816   2.35
   3   1   6  2 o  4850.804   4332.703  -127.60   1.99113   1.22
   0   2   0  2 o  91104.33   83719.61    0.00    2.01757   3.04
   4   1   5  2 o  685.901    637.415    78.87    1.98078   0.19
   6   0   3  2 o  15005.525  9552.100  -146.64   1.96619   1.92
   1   1   7  2 o  790.390    750.124   -25.43    1.99674   0.18
   1   2   0  1 o  11499.714  10412.319 -88.69    1.99011  13.88
   1   2   0  2 o  12454.762  10870.037   0.00    1.99238   0.87
   2   0   8  2 o -74.419     1888.087   81.55    1.94544   0.00
   1   2   1  2 o  6878.698   7190.493   165.16   1.97776   0.97
   0   2   1  1 o  644.456    464.819    23.73    1.96258   0.78
   3   0   3  1 o  7403.149   7894.833  -67.55    1.97793   2.28
   1   2  -1  1 o  146.840    127.681   -15.48    1.96052   0.16
   0   2   2  2 o  4503.047   4132.894   -9.31    1.95884   0.29
   2   1   3  1 o  3151.394   2956.061  -130.29   1.95974   2.12
   6   0   0  1 o  3632.389   6404.077   70.74    1.95444   1.41
   2   1   7  2 o  55.068     422.186    38.05    1.92604   0.00
   1   2   2  2 o  225.518    3023.946   27.37    1.93577   0.00
   2   1  -4  1 o  16.689     284.195   -48.10    1.93509   0.00
   5   1   4  2 o  319.191    1200.474   32.07    1.89834   0.08
   2   2   0  2 o -11.737     498.060     0.00    1.92212   0.00
   1   2   1  1 o  2669.693   3267.473  -113.31   1.91173   2.52
   4   0   7  2 o -99.920     2803.228  -130.95   1.87923   0.00
   6   0   4  2 o  606.859    3135.083  -88.35    1.87371   0.07
   1   1  -4  1 o  266.139    616.725   -14.23    1.91693   0.11
   2   2   0  1 o  2730.491   3063.793   146.89   1.90933   2.31
   5   1  -3  1 o  259.904    658.848   -100.07   1.91790   0.06
   2   2  -1  1 o  4318.050   5270.658    9.91    1.90602   3.46
   2   2   1  2 o  12009.465  12635.364  167.66   1.90899   1.65
   3   1  -4  1 o  1424.240   2061.161  -168.73   1.90171   0.30
   1   2   3  2 o  1181.282   2898.490  -150.85   1.87135   0.10
   2   2   2  2 o  160.406    438.898   -169.70   1.87114   0.02
   4   1   6  2 o  56188.66   53757.43   63.93    1.83807  10.45
   6   1   0  2 o  14.796     13.947      0.00    1.86843   0.00
   6   1   1  2 o  55637.61   37489.75  -166.52   1.85636  11.74
   0   1   4  1 o  18728.402  13973.697 -98.29    1.85133   8.42
   4   1   2  1 o  15393.903  10514.094  110.97   1.85993   7.90
   5   1   1  1 o  10421.119  7486.283   51.96    1.85333   5.10
   3   1   7  2 o  2004.067   1625.561   102.33   1.82324   0.37
   1   2  -2  1 o  1431.313   1334.070  -61.94    1.83600   0.99
   6   1   2  2 o  1267.900   1028.781  -47.30    1.82150   0.25
   6   1  -1  1 o  1843.590   1442.146  -163.83   1.83448   0.67
   0   2   2  1 o  1835.151   1395.163   163.55   1.81718   1.43
   0   1   8  2 o  78512.65   66737.41  -97.58    1.82382   6.66
   5   1   5  2 o  1807.803   4244.359   64.39    1.79278   0.31
   2   2   1  1 o  12925.198  9893.662  -60.03    1.81920   9.20
   3   2   0  2 o  27167.605  21120.113   0.00    1.81992   1.90
   6   1  -2  1 o  12710.158  11092.404 -155.22   1.82571   3.53
   4   1  -4  1 o  17000.357  14564.268 -101.14   1.82418   2.68
   1   1   8  2 o  1247.002   3995.455  -97.34    1.80515   0.18
   2   2  -2  1 o  5715.364   6135.152   50.27    1.81065   3.42
   2   2   3  2 o  816.144    651.730    67.03    1.81277   0.10
   0   2   4  2 o  26151.836  29551.463 -124.18   1.80932   1.35
   6   0   5  2 o  99569.17   93758.62  -128.21   1.77199   8.25
   3   2   1  2 o  1559.822   1932.106  -18.39    1.80876   0.20
   3   2  -1  1 o  1151.141   1173.813  -61.36    1.81102   0.67
   3   2   0  1 o  14.831     29.250     121.39   1.79412   0.00
   1   2   4  2 o  626.227    1020.949   138.40   1.79109   0.06
   6   1   3  2 o  62467.43   57995.50  -147.49   1.76752  10.60
   2   0   4  1 o  22054.355  24227.225 -109.40   1.78643   4.19
   3   2   2  2 o  676.084    565.415    73.00    1.77647   0.08
   3   1   3  1 o  10933.028  9712.685  -27.61    1.77635   4.79
   2   0   9  2 o  56582.41   62265.32  -87.58    1.74671   4.50
   2   1   8  2 o  173.872    149.752    79.05    1.75240   0.03
   1   2   2  1 o  7376.867   6333.623  -169.86   1.75802   4.75
   6   1   0  1 o  11648.237  10115.405  127.57   1.75927   4.26
   3   0  -5  1 o  18212.012  14596.133 -151.22   1.75502   0.94
   4   0   8  2 o  3484.912   2167.309   94.46    1.71693   0.26
   7   0  -1  1 o  29569.932  26147.254 -102.66   1.75776   6.71
   1   1   4  1 o  2834.285   2742.015   161.61   1.75159   1.11
   3   2  -2  1 o  3034.966   3742.103   106.32   1.74626   1.35
   2   2   4  2 o  229.615    148.070    108.97   1.73953   0.02
   6   0  -4  1 o  18492.945  13007.164 -121.18   1.73855   1.64
   3   2   3  2 o  3371.344   6725.168   32.55    1.72629   0.35
   6   1  -3  1 o  2294.143   2171.306  -171.94   1.73637   0.41
   4   1   7  2 o  1513.448   1538.040  -144.56   1.70355   0.22
   1   0  -5  1 o  2506.801   4176.303  -73.76    1.73099   0.24
   6   1   4  2 o  1984.813   2055.321  -87.97    1.69943   0.29
   5   1  -4  1 o  4325.755   2450.060   157.03   1.71736   0.55
   5   1   6  2 o  10.933     26.099     29.48    1.68491   0.00
   1   2   5  2 o  12508.742  11094.217 -117.18   1.70163   1.15
   4   2   0  2 o  91010.18   79771.22   180.00   1.70084   5.26
   7   0  -3  1 o  4110.123   3731.707  -129.65   1.70317   0.53
   6   0   6  2 o  1171.145   2222.599   29.42    1.66761   0.08
   3   2   1  1 o  14441.125  12805.575  54.38    1.70190   6.38
   3   1   8  2 o  101.181    599.608   -95.43    1.67391   0.00
   4   2   1  2 o  263.554    316.231   -59.47    1.69172   0.03
   4   2  -1  1 o  2229.110   2693.481  -47.73    1.69255   0.74
   2   2   2  1 o  362.176    343.795    124.01   1.66940   0.18
   3   2   4  2 o  2488.337   2353.244   94.74    1.66268   0.24
   4   2   2  2 o  2779.612   2166.331   157.82   1.66521   0.29
   1   2  -3  1 o  11370.891  11540.956  151.24   1.66217   4.62
   2   2   5  2 o  68376.82   74524.54   47.88    1.65723   5.78
   4   2   0  1 o  569.057    549.155    24.99    1.66304   0.19
   2   2  -3  1 o  7547.783   8370.378   78.41    1.65842   2.65
   1   1   9  2 o  43.396     419.457    39.43    1.64305   0.00
   7   1   0  2 o  5231.741   3094.430   180.00   1.64910   0.33
   4   2  -2  1 o  11736.021  10715.049 -149.59   1.65434   3.31
   6   1   5  2 o  35.002     1889.126   51.84    1.62244   0.00
   7   1   1  2 o  27.503     166.811   -176.98   1.64078   0.00
   5   1   2  1 o  3764.444   2043.615  -10.93    1.64851   1.17
   0   2   3  1 o  1240.385   2019.338   132.18   1.63331   0.52
   0   0  10  2 o  68620.16   64816.88  -76.15    1.63566   2.09
   5   0  -5  1 o  21684.990  19245.725   9.13    1.63569   0.90
   2   1   4  1 o  1637.309   1997.927   115.21   1.63374   0.45
   7   1   2  2 o  1190.971   1596.401  -114.59   1.61656   0.13
   4   2   3  2 o   0.056     236.382   -139.08   1.62367   0.00
   0   2   6  2 o  40.810     853.438   -35.35    1.62174   0.00
   6   1   1  1 o  19.403     508.294    83.13    1.62682   0.00
   3   2  -3  1 o  84.082     988.757   -50.05    1.62269   0.00
   2   1   9  2 o  9308.299   10739.381  83.20    1.60297   0.93
   7   1  -2  1 o  15.713     70.737     157.87   1.61988   0.00
   2   1  -5  1 o  1890.012   2744.035   153.80   1.61535   0.25
   1   2   6  2 o  3553.193   5046.991  -132.03   1.60857   0.25
   7   1  -1  1 o  936.783    1853.722   133.65   1.61173   0.18
   3   1  -5  1 o  3135.020   4364.680   -4.95    1.60962   0.32
   4   1   8  2 o  99432.80   67770.26   83.18    1.57986   9.43
   5   1   7  2 o  1210.790   826.572    167.73   1.57948   0.12
   2   0  10  2 o  2377.365   1579.095  -57.72    1.58356   0.13
   4   1   3  1 o  1667.264   2421.469  -145.73   1.60542   0.44
   4   0   9  2 o  2172.896   1415.171   135.76   1.57569   0.11
   3   2   5  2 o  4173.635   3439.298   64.21    1.59038   0.31
   6   0   7  2 o  6457.934   5394.127  -107.21   1.56521   0.31
   6   1  -4  1 o  6450.455   4476.475   82.63    1.59688   0.66
   7   1   3  2 o  4150.954   2791.708  -153.87   1.57848   0.43
   1   1  -5  1 o  13468.563  11660.520 -132.56   1.59102   2.24
   8   0   0  2 o  142344.91  95610.61    0.00    1.58103   3.47
   8   0   1  2 o  4005.433   2583.100   82.13    1.57369   0.19
   1   2   3  1 o  5569.000   3712.103    4.14    1.57661   1.92
   5   2   0  2 o  8495.117   5845.351  -180.00   1.57732   0.37
   4   2   4  2 o  31450.258  23433.150  54.37    1.57041   2.45
   1   0   5  1 o  1504.766   1013.690   59.72    1.57918   0.15
   6   0   2  1 o  26734.313  17561.797  85.22    1.58092   3.93
   2   2   6  2 o  49.362     36.078     94.40    1.57091   0.00
   4   2   1  1 o  4570.601   2847.682  -51.20    1.57548   1.18
   5   2   1  2 o  5425.370   4129.863  -32.54    1.57004   0.47
   4   1  -5  1 o  143.933    87.888    -20.24    1.57476   0.01
   8   0   2  2 o  7923.914   7777.356   23.07    1.55229   0.36
   7   1  -3  1 o  15972.740  12996.292 -67.54    1.56934   2.04
   6   1   6  2 o  825.897    1213.474   34.27    1.54119   0.08
   3   2   2  1 o  731.507    641.946    108.83   1.56435   0.23
   5   2  -1  1 o  7181.105   5534.083   104.73   1.56595   1.34
   3   1   9  2 o  1135.332   1237.783  -99.31    1.54224   0.09
   4   2  -3  1 o  540.104    831.853    47.16    1.56078   0.10
   5   0   3  1 o  2576.692   2270.580  -80.76    1.55735   0.31
   5   2   2  2 o  2818.047   3209.305  -160.12   1.54878   0.23
   8   0  -2  1 o  2692.868   2968.525  -40.37    1.55152   0.30
   7   1   4  2 o  786.733    708.180   -60.03    1.52941   0.07
   5   2  -2  1 o  5719.102   6122.938   120.18   1.54786   0.93
   7   1   0  1 o  399.797    406.433    -5.52    1.54740   0.09
   7   0   1  1 o  5441.756   5276.726   156.74   1.54708   0.77
   0   1   5  1 o  494.451    1409.886    6.31    1.54047   0.08
   8   0   3  2 o  424.014    243.763    78.51    1.51847   0.02
   5   2   0  1 o  6131.709   6887.756   31.39    1.53030   1.06
   3   2   6  2 o  2619.269   8957.664  -134.73   1.51362   0.15
   1   2   7  2 o  228.288    297.707   -15.07    1.51608   0.01
   0   1  10  2 o  479.512    647.300    99.76    1.51586   0.01
   5   2   3  2 o  2286.058   3882.916   28.69    1.51519   0.14
   4   2   5  2 o   2.292     38.935     140.43   1.50906   0.00
   5   1  -5  1 o  254.195    436.537   -169.57   1.51608   0.01
   3   1   4  1 o  47.596     582.908    111.88   1.51114   0.00
   1   1  10  2 o  22.461     497.337   -41.82    1.50509   0.00
   2   2   3  1 o  91.854     2027.502  -119.00   1.50026   0.00
   5   1   8  2 o  1200.554   3634.224   83.87    1.47940   0.08
   8   0   4  2 o  26424.348  30422.586 -138.08   1.47464   0.86
   6   0   8  2 o  1756.876   1347.128  -105.53   1.46766   0.06
   2   2   7  2 o  133.392    1929.762   13.53    1.48443   0.00
   2   2  -4  1 o   7.695     90.732    -177.35   1.48911   0.00
   7   1   5  2 o  71.626     67.571    -116.64   1.47257   0.00
   2   1  10  2 o  118.993    112.748   -13.07    1.47411   0.01
   4   1   9  2 o  1824.547   1345.144   126.03   1.46775   0.12
   4   0   4  1 o  5777.314   6962.662   57.07    1.48345   0.46
   1   2  -4  1 o  919.995    1479.926  -22.82    1.48079   0.18
   6   1   7  2 o  3609.919   1431.247  -119.61   1.45927   0.23
   5   2   4  2 o  1023.694   780.194    18.30    1.47164   0.06
   5   2  -3  1 o  100.641    152.805   -130.20   1.48124   0.01
   8   1   0  2 o  3155.289   2459.751  -180.00   1.47206   0.11
   3   2  -4  1 o  4583.392   3889.968  -166.20   1.47374   0.60
   4   0  10  2 o  96939.53   57035.99   103.53   1.45280   2.99
   7   1  -4  1 o  915.966    813.927    21.27    1.47476   0.07
   8   1   1  2 o  2289.566   1579.596   123.13   1.46614   0.15
   1   1   5  1 o  691.243    493.718    79.44    1.47075   0.11
   6   1   2  1 o  6809.510   5172.105  -26.61    1.47216   1.14
   2   0  -6  1 o  35409.22   16239.104 -42.24    1.46345   1.10
   8   0   0  1 o  7836.107   4685.891   154.49   1.46583   0.78
   6   2   0  2 o  197.347    71.190     180.00   1.45757   0.01
   2   0  11  2 o  28634.256  16567.838 -60.63    1.44749   0.88
   6   2   1  2 o  15045.131  9438.444  -10.90    1.45182   0.86
   8   1   2  2 o  35827.97   22250.680  17.94    1.44878   2.19
   4   2   6  2 o  1742.460   988.153    163.70   1.44302   0.08
   4   2   2  1 o  8011.000   4928.622  -49.47    1.45403   1.34
   4   0  -6  1 o  5981.109   3630.974  -43.74    1.45327   0.11
   0   2   4  1 o  2337.567   1520.300   102.19   1.44991   0.42
   5   1   3  1 o  5986.831   3672.896  -33.40    1.45307   0.91
   5   2   1  1 o  4012.099   2616.605  -139.51   1.45088   0.56
   8   1  -2  1 o  2617.705   1574.714  -62.85    1.44833   0.30
   3   2   7  2 o  1560.691   1272.607   83.90    1.43581   0.07
   8   0   5  2 o   9.863     1484.567  -94.88    1.42350   0.00
   8   0  -4  1 o  28319.652  18066.633  57.54    1.44238   1.30
   7   1   1  1 o  9191.122   4588.547   168.16   1.44471   1.42
   7   0  -5  1 o  5350.560   3708.126   -3.32    1.44181   0.17
   3   1  10  2 o   1.247     3181.303  -57.51    1.42646   0.00
   0   2   8  2 o  1144.294   827.757    76.89    1.43609   0.02
   6   2   2  2 o  359.058    367.345   -29.38    1.43496   0.02
   6   2  -1  1 o  4327.929   3031.854   149.63   1.44178   0.43
   6   1  -5  1 o  3720.968   2872.252  -87.82    1.44122   0.18
   6   2  -2  1 o  1220.301   782.890     9.68    1.43751   0.11
   4   2  -4  1 o  3133.540   2068.274   80.99    1.43676   0.30
   8   1   3  2 o   9.101     330.781    99.12    1.42118   0.00
   5   2   5  2 o  258.789    8519.427   64.91    1.42079   0.00
   1   2   8  2 o  326.585    3956.037  -87.24    1.42692   0.00
   7   1   6  2 o  98.022     2102.844   46.52    1.41102   0.00
   8   1  -1  1 o  171.720    2497.700   130.10   1.43250   0.00
   8   1  -3  1 o  68.834     1327.060  -176.77   1.42142   0.00
   3   2   3  1 o  23.008     637.245   -127.18   1.41304   0.00
   6   2   3  2 o  29.296     717.774   -118.27   1.40812   0.00
   2   2   8  2 o  -0.093      0.116     177.06   1.40044   0.00
   5   1   9  2 o  977.895    623.087   -144.64   1.38615   0.04
   1   2   4  1 o  2741.844   6597.469   139.38   1.40048   0.36
   6   2   0  1 o  244.375    579.562     9.91    1.40440   0.02
   8   1   4  2 o  18598.746  11237.203  34.85    1.38505   0.78
   6   0   9  2 o  64666.76   58620.84   92.56    1.37648   1.30
   6   1   8  2 o  755.009    540.345   -95.58    1.37926   0.03
   1   1  11  2 o  6248.499   3878.890   118.07   1.38684   0.26
   6   2  -3  1 o  5006.192   3736.315  -158.23   1.39267   0.32
   4   1   4  1 o  6753.650   4779.570  -80.61    1.39249   0.74
   2   1   5  1 o  714.422    370.086   -141.63   1.38977   0.07
   0   0   6  1 o  22195.418  12885.144 -161.63   1.38871   0.82
   8   0   6  2 o  17.818      9.333    -30.01    1.36766   0.00
   4   2   7  2 o  159.313    159.855    159.96   1.37513   0.01
   3   1  -6  1 o  5163.245   3105.551  -133.76   1.38114   0.21
   4   1  10  2 o  5305.494   2810.198  -76.12    1.36691   0.20
   5   2  -4  1 o  8169.292   4023.304   136.23   1.38280   0.50
   6   2   4  2 o  281.207    479.497   -25.08    1.37296   0.01
   3   0   5  1 o  2226.362   2180.702  -143.78   1.37827   0.09
   2   1  -6  1 o  1060.770   988.710    118.16   1.37591   0.05
   8   1   0  1 o  5412.056   5370.776  -22.15    1.37788   0.54
   5   2   6  2 o  1062.162   661.297    32.35    1.36526   0.03
   2   1  11  2 o  52396.05   39163.29  -63.95    1.36248   1.87
   0   0  12  2 o  143.154    93.687     173.40   1.36305   0.00
   3   2   8  2 o  4857.442   3220.467  -83.78    1.35939   0.13
   4   1  -6  1 o  23793.227  10221.673 -48.15    1.36744   0.71
   9   0  -3  1 o  13550.420  9709.785  -68.76    1.36451   0.54
   7   1   7  2 o -40.330     1530.054  -95.91    1.34735   0.00
   6   0  -6  1 o  12.725      8.603    -32.79    1.36308   0.00
   4   0  11  2 o  -2.607     403.973   -74.56    1.34561   0.00
   8   1  -4  1 o  983.195    698.170   -83.06    1.35836   0.04
   7   1  -5  1 o  6512.298   9437.641   -2.00    1.35788   0.22
   9   0  -1  1 o  100.601    797.638    144.59   1.35718   0.00
   1   1  -6  1 o  11.855     104.657   -45.20    1.35239   0.00
   0   3   0  1 o  12781.584  12932.837  180.00   1.34627   0.99
   7   2   0  2 o  5285.450   3796.773  -180.00   1.34601   0.09
   0   3   0  2 o  25119.988  13926.863  180.00   1.34505   0.10
   1   2   9  2 o  1842.184   892.702    44.50    1.34271   0.04
   5   2   2  1 o  9504.782   5511.741  -31.85    1.34609   0.78
_reflns_number_total                   362
_reflns_limit_h_min                    0
_reflns_limit_h_max                    9
_reflns_limit_k_min                    0
_reflns_limit_k_max                    3
_reflns_limit_l_min                    -6
_reflns_limit_l_max                    12
_reflns_d_resolution_high              1.343
_reflns_d_resolution_low               8.178
#--eof--eof--eof--eof--eof--eof--eof--eof--eof--eof--eof--eof--eof--eof--eof--#






# powder data simulated using PLATON:

data_C4Br4S2G_phase_1_simulated_

_publcif_pd_cifplot 'simulated 2021-05-09'

_pd_proc_2theta_range_min 0.020
_pd_proc_2theta_range_max 5.000
_pd_proc_2theta_range_inc 0.020
# Mo
_diffrn_radiation_wavelength 0.71073
# May  9 11:46:59 2021
# 1
# C4Br4S2G_pP ne_1                                  
loop_ _pd_calc_intensity_total #SCANDATA
0
0
0
0
0
0
0
0
0
0
0
0
0
0
0
0
0
0
0
0
0
0
0
0
0
0
0
0
0
0
0
0
0
0
0
0
0
0
0
0
0
0
0
0
0
0
0
0
0
0
0
0
0
0
0
0
0
0
0
0
0
0
0
0
0
0
0
0
0
0
0
0
0
0
0
0
0
0
0
0
0
0
0
0
0
0
0
0
0
0
0
0
0
0
0
0
0
0
0
0
0
0
0
0
0
0
0
0
0
0
0
0
0
0
0
0
0
0
0
0
0
0
0
0
0
0
0
0
0
0
0
0
0
0
0
0
0
0
0
0
0
0
0
0
0
0
0
0
0
0
0
0
0
0
0
0
0
0
0
0
0
0
0
0
0
0
0
0
0
0
0
0
0
0
0
0
0
0
0
0
0
0
0
0
0
0
0
0
0
0
0
0
0
0
0
0
0
0
0
0
0
0
0
0
0
0
0
0
0
0
0
0
0
0
0
0
0
0
0
0
0
0
0
0
0
0
0
0
0
0
0
0
0
0
0
0
0
0
0
0
0
0
0
0
0
15500
31000
77500
155000
77500



# powder data simulated using PLATON:

data_C4Br4S2G_phase_2_simulated_

_publcif_pd_cifplot 'simulated 2021-05-09'

_pd_proc_2theta_range_min 0.020
_pd_proc_2theta_range_max 5.000
_pd_proc_2theta_range_inc 0.020
# Mo
_diffrn_radiation_wavelength 0.71073
# May  9 11:47:00 2021
# 1
# C4Br4S2G_pP c a 21                                
loop_ _pd_calc_intensity_total #SCANDATA
0
0
0
0
0
0
0
0
0
0
0
0
0
0
0
0
0
0
0
0
0
0
0
0
0
0
0
0
0
0
0
0
0
0
0
0
0
0
0
0
0
0
0
0
0
0
0
0
0
0
0
0
0
0
0
0
0
0
0
0
0
0
0
0
0
0
0
0
0
0
0
0
0
0
0
0
0
0
0
0
0
0
0
0
0
0
0
0
0
0
0
0
0
0
0
0
0
0
0
0
0
0
0
0
0
0
0
0
0
0
0
0
0
0
0
0
0
0
0
0
0
0
0
0
0
0
0
0
0
0
0
0
0
0
0
0
0
0
0
0
0
0
0
0
0
0
0
0
0
0
0
0
0
0
0
0
0
0
0
0
0
0
0
0
0
0
0
0
0
0
0
0
0
0
0
0
0
0
0
0
0
0
0
0
0
0
0
0
0
0
0
0
0
0
0
0
0
0
0
0
0
0
0
0
0
0
0
0
0
0
0
0
0
0
0
0
0
0
0
0
0
0
0
0
0
0
0
0
0
0
0
0
0
0
0
0
0
0
0
0
0
0
0
0
0
15500
31000
77500
155000
77500

