data_I

_pd_block_id      average

loop_
      _pd_proc_point_id
      _pd_proc_2theta_corrected           # one of
      _pd_proc_intensity_net
      _pd_calc_intensity_net
      _pd_proc_ls_weight
         1    15.016  2.20E+02       387            3.30E-05 
         2    15.023  3.70E+02       385            3.29E-05 
         3    15.031  3.50E+02       383            3.29E-05 
         4    15.039  3.20E+02       381            3.29E-05 
         5    15.047  2.20E+02       379            3.30E-05 
         6    15.054  3.20E+02       377            3.29E-05 
         7    15.062  4.30E+02       376            3.27E-05 
         8    15.070  3.50E+02       374            3.28E-05 
         9    15.078  2.30E+02       372            3.29E-05 
        10    15.085  3.10E+02       370            3.28E-05 
        11    15.093  3.40E+02       368            3.28E-05 
        12    15.101  2.10E+02       366            3.29E-05 
        13    15.109  4.50E+02       365            3.27E-05 
        14    15.117  5.00E+01       363            3.31E-05 
        15    15.124  1.70E+02       361            3.29E-05 
        16    15.132  1.70E+02       359            3.29E-05 
        17    15.140  4.30E+02       357            3.27E-05 
        18    15.148  3.60E+02       356            3.27E-05 
        19    15.155  2.50E+02       354            3.28E-05 
        20    15.163  4.20E+02       352            3.26E-05 
        21    15.171  0.00E+00       350            3.31E-05 
        22    15.179  1.90E+02       349            3.29E-05 
        23    15.186  3.60E+02       347            3.27E-05 
        24    15.194  2.00E+02       345            3.28E-05 
        25    15.202  5.60E+02       343            3.24E-05 
        26    15.210  2.10E+02       342            3.28E-05 
        27    15.217  4.80E+02       340            3.25E-05 
        28    15.225  1.90E+02       338            3.28E-05 
        29    15.233  2.20E+02       337            3.28E-05 
        30    15.241  1.20E+02       335            3.29E-05 
        31    15.249  3.80E+02       333            3.26E-05 
        32    15.256  2.00E+02       332            3.28E-05 
        33    15.264  2.30E+02       330            3.27E-05 
        34    15.272  5.40E+02       328            3.24E-05 
        35    15.280  2.20E+02       327            3.27E-05 
        36    15.287  1.90E+02       325            3.27E-05 
        37    15.295  1.50E+02       323            3.28E-05 
        38    15.303  6.00E+01       322            3.29E-05 
        39    15.311  6.00E+01       320            3.28E-05 
        40    15.318  1.00E+02       319            3.28E-05 
        41    15.326  2.00E+02       317            3.27E-05 
        42    15.334  2.10E+02       315            3.27E-05 
        43    15.342  9.00E+01       314            3.28E-05 
        44    15.350  2.60E+02       312            3.26E-05 
        45    15.357  2.30E+02       311            3.27E-05 
        46    15.365  2.40E+02       309            3.27E-05 
        47    15.373  4.80E+02       307            3.24E-05 
        48    15.381  2.70E+02       306            3.27E-05 
        49    15.388  2.50E+02       304            3.27E-05 
        50    15.396  8.00E+01       303            3.29E-05 
        51    15.404  3.70E+02       301            3.26E-05 
        52    15.412  4.70E+02       300            3.25E-05 
        53    15.419  1.60E+02       298            3.28E-05 
        54    15.427  1.10E+02       297            3.29E-05 
        55    15.435  2.80E+02       295            3.27E-05 
        56    15.443  3.80E+02       294            3.26E-05 
        57    15.450  3.40E+02       292            3.26E-05 
        58    15.458  1.40E+02       291            3.28E-05 
        59    15.466  0.00E+00       289            3.30E-05 
        60    15.474  2.40E+02       288            3.28E-05 
        61    15.482  3.50E+02       286            3.26E-05 
        62    15.489  3.00E+02       285            3.27E-05 
        63    15.497  2.00E+02       283            3.28E-05 
        64    15.505  4.10E+02       282            3.26E-05 
        65    15.513  3.00E+01       280            3.30E-05 
        66    15.520  2.20E+02       279            3.28E-05 
        67    15.528  1.30E+02       277            3.29E-05 
        68    15.536  7.50E+02       276            3.23E-05 
        69    15.544  2.80E+02       275            3.28E-05 
        70    15.551  1.30E+02       273            3.29E-05 
        71    15.559  2.60E+02       272            3.28E-05 
        72    15.567  1.50E+02       270            3.29E-05 
        73    15.575  1.50E+02       269            3.29E-05 
        74    15.583  3.50E+02       267            3.27E-05 
        75    15.590  4.30E+02       266            3.26E-05 
        76    15.598  5.00E+01       265            3.30E-05 
        77    15.606  9.00E+01       263            3.30E-05 
        78    15.614  4.80E+02       262            3.26E-05 
        79    15.621  2.00E+01       261            3.31E-05 
        80    15.629  1.00E+01       259            3.31E-05 
        81    15.637  6.00E+01       258            3.31E-05 
        82    15.645  2.40E+02       256            3.29E-05 
        83    15.652  3.60E+02       255            3.28E-05 
        84    15.660  1.10E+02       254            3.30E-05 
        85    15.668  9.00E+01       252            3.31E-05 
        86    15.676  5.10E+02       251            3.26E-05 
        87    15.683  4.00E+01       250            3.31E-05 
        88    15.691  3.70E+02       248            3.28E-05 
        89    15.699  5.40E+02       247            3.26E-05 
        90    15.707  1.70E+02       246            3.30E-05 
        91    15.715  2.00E+02       245            3.30E-05 
        92    15.722  1.50E+02       243            3.30E-05 
        93    15.730  1.60E+02       242            3.30E-05 
        94    15.738  6.00E+01       241            3.32E-05 
        95    15.746  4.00E+02       239            3.28E-05 
        96    15.753  2.50E+02       238            3.29E-05 
        97    15.761  5.20E+02       237            3.27E-05 
        98    15.769  2.20E+02       236            3.30E-05 
        99    15.777  4.50E+02       234            3.28E-05 
       100    15.784  4.80E+02       233            3.27E-05 
       101    15.792  2.10E+02       232            3.30E-05 
       102    15.800  4.10E+02       231            3.28E-05 
       103    15.808 -5.00E+01       229            3.33E-05 
       104    15.816  3.00E+02       228            3.29E-05 
       105    15.823  3.30E+02       227            3.29E-05 
       106    15.831  2.90E+02       226            3.30E-05 
       107    15.839  1.00E+02       224            3.32E-05 
       108    15.847  2.80E+02       223            3.30E-05 
       109    15.854  5.80E+02       222            3.27E-05 
       110    15.862  0.00E+00       221            3.33E-05 
       111    15.870  7.00E+01       220            3.32E-05 
       112    15.878  4.10E+02       218            3.29E-05 
       113    15.885  3.00E+02       217            3.30E-05 
       114    15.893  7.90E+02       216            3.25E-05 
       115    15.901  9.00E+01       215            3.32E-05 
       116    15.909  5.10E+02       214            3.28E-05 
       117    15.917  3.50E+02       213            3.30E-05 
       118    15.924  1.00E+01       211            3.33E-05 
       119    15.932  4.70E+02       210            3.28E-05 
       120    15.940  3.70E+02       209            3.29E-05 
       121    15.948  1.30E+02       208            3.32E-05 
       122    15.955  3.00E+02       207            3.30E-05 
       123    15.963  4.30E+02       206            3.29E-05 
       124    15.971  1.30E+02       205            3.32E-05 
       125    15.979  2.90E+02       203            3.31E-05 
       126    15.986  2.30E+02       202            3.31E-05 
       127    15.994  3.00E+01       201            3.34E-05 
       128    16.002  5.00E+01       200            3.34E-05 
       129    16.010  3.30E+02       199            3.31E-05 
       130    16.017 -1.90E+02       198            3.36E-05 
       131    16.025  1.80E+02       197            3.32E-05 
       132    16.033  3.00E+01       196            3.34E-05 
       133    16.041  2.20E+02       195            3.32E-05 
       134    16.049  2.00E+02       193            3.32E-05 
       135    16.056  3.00E+02       192            3.31E-05 
       136    16.064  1.10E+02       191            3.33E-05 
       137    16.072  1.90E+02       190            3.32E-05 
       138    16.080  5.00E+02       189            3.29E-05 
       139    16.087  4.90E+02       188            3.29E-05 
       140    16.095  1.20E+02       187            3.33E-05 
       141    16.103  3.70E+02       186            3.31E-05 
       142    16.111  4.00E+02       185            3.31E-05 
       143    16.118 -7.00E+01       184            3.36E-05 
       144    16.126  2.90E+02       183            3.32E-05 
       145    16.134  3.10E+02       182            3.32E-05 
       146    16.142  1.40E+02       181            3.33E-05 
       147    16.150  1.80E+02       180            3.33E-05 
       148    16.157  1.50E+02       179            3.33E-05 
       149    16.165  4.00E+01       178            3.35E-05 
       150    16.173  5.00E+01       177            3.35E-05 
       151    16.181  4.20E+02       176            3.31E-05 
       152    16.188  2.70E+02       175            3.32E-05 
       153    16.196  2.00E+01       174            3.35E-05 
       154    16.204  2.10E+02       173            3.33E-05 
       155    16.212  0.00E+00       172            3.36E-05 
       156    16.219  8.00E+01       171            3.35E-05 
       157    16.227  8.60E+02       170            3.26E-05 
       158    16.235  2.00E+02       169            3.33E-05 
       159    16.243 -5.00E+01       168            3.36E-05 
       160    16.250  1.30E+02       167            3.34E-05 
       161    16.258  2.20E+02       166            3.34E-05 
       162    16.266 -1.00E+01       165            3.36E-05 
       163    16.274  3.40E+02       164            3.32E-05 
       164    16.282  3.20E+02       163            3.32E-05 
       165    16.289  2.80E+02       162            3.33E-05 
       166    16.297  2.80E+02       161            3.33E-05 
       167    16.305  4.10E+02       160            3.32E-05 
       168    16.313  3.80E+02       159            3.32E-05 
       169    16.320  1.40E+02       158            3.35E-05 
       170    16.328  6.20E+02       158            3.30E-05 
       171    16.336  1.70E+02       157            3.35E-05 
       172    16.344  3.90E+02       156            3.32E-05 
       173    16.351  3.80E+02       155            3.32E-05 
       174    16.359  3.70E+02       154            3.33E-05 
       175    16.367  1.20E+02       153            3.35E-05 
       176    16.375  3.50E+02       152            3.33E-05 
       177    16.383  2.90E+02       151            3.34E-05 
       178    16.390  2.60E+02       150            3.34E-05 
       179    16.398 -8.00E+01       149            3.38E-05 
       180    16.406  2.50E+02       149            3.34E-05 
       181    16.414  1.10E+02       148            3.36E-05 
       182    16.421  2.30E+02       147            3.35E-05 
       183    16.429  4.00E+01       146            3.37E-05 
       184    16.437  2.60E+02       145            3.34E-05 
       185    16.445  1.00E+01       144            3.37E-05 
       186    16.452  1.00E+01       143            3.37E-05 
       187    16.460 -1.10E+02       142            3.39E-05 
       188    16.468  2.10E+02       142            3.35E-05 
       189    16.476  2.00E+01       141            3.37E-05 
       190    16.483  2.90E+02       140            3.34E-05 
       191    16.491  3.40E+02       139            3.34E-05 
       192    16.499  4.00E+01       138            3.37E-05 
       193    16.507  4.30E+02       137            3.33E-05 
       194    16.515  1.30E+02       137            3.36E-05 
       195    16.522  4.40E+02       136            3.33E-05 
       196    16.530  1.10E+02       135            3.37E-05 
       197    16.538  2.40E+02       134            3.35E-05 
       198    16.546  2.50E+02       133            3.35E-05 
       199    16.553  1.00E+02       133            3.37E-05 
       200    16.561  1.20E+02       132            3.37E-05 
       201    16.569 -1.00E+02       131            3.39E-05 
       202    16.577  2.90E+02       130            3.35E-05 
       203    16.584  3.30E+02       129            3.34E-05 
       204    16.592  1.00E+01       129            3.38E-05 
       205    16.600  2.40E+02       128            3.36E-05 
       206    16.608  4.90E+02       127            3.33E-05 
       207    16.616  1.90E+02       126            3.36E-05 
       208    16.623  1.90E+02       125            3.36E-05 
       209    16.631  1.30E+02       125            3.37E-05 
       210    16.639  4.20E+02       124            3.34E-05 
       211    16.647  1.80E+02       123            3.37E-05 
       212    16.654  1.60E+02       122            3.37E-05 
       213    16.662  1.20E+02       122            3.37E-05 
       214    16.670  3.90E+02       121            3.34E-05 
       215    16.678  1.90E+02       120            3.37E-05 
       216    16.685  2.00E+02       119            3.37E-05 
       217    16.693  2.20E+02       119            3.36E-05 
       218    16.701  4.00E+02       118            3.35E-05 
       219    16.709  2.20E+02       117            3.37E-05 
       220    16.717  1.40E+02       116            3.38E-05 
       221    16.724  1.70E+02       116            3.37E-05 
       222    16.732 -1.70E+02       115            3.41E-05 
       223    16.740  1.70E+02       114            3.37E-05 
       224    16.748 -3.40E+02       114            3.43E-05 
       225    16.755  5.00E+01       113            3.39E-05 
       226    16.763  4.00E+01       112            3.39E-05 
       227    16.771  5.50E+02       111            3.33E-05 
       228    16.779  2.50E+02       111            3.37E-05 
       229    16.786  1.60E+02       110            3.38E-05 
       230    16.794  3.10E+02       109            3.36E-05 
       231    16.802  2.70E+02       109            3.37E-05 
       232    16.810  8.00E+01       108            3.39E-05 
       233    16.817  1.00E+01       107            3.40E-05 
       234    16.825  2.40E+02       107            3.37E-05 
       235    16.833  4.30E+02       106            3.35E-05 
       236    16.841  3.00E+01       105            3.40E-05 
       237    16.849  2.50E+02       105            3.37E-05 
       238    16.856  2.20E+02       104            3.38E-05 
       239    16.864  3.00E+01       103            3.40E-05 
       240    16.872  2.20E+02       102            3.38E-05 
       241    16.880  3.10E+02       102            3.37E-05 
       242    16.887  3.30E+02       101            3.37E-05 
       243    16.895  2.60E+02       101            3.38E-05 
       244    16.903  4.80E+02      99.9            3.35E-05 
       245    16.911  5.00E+01      99.2            3.40E-05 
       246    16.918  3.10E+02      98.6            3.37E-05 
       247    16.926  1.00E+01      97.9            3.41E-05 
       248    16.934  6.00E+01      97.3            3.40E-05 
       249    16.942  2.10E+02      96.6            3.38E-05 
       250    16.950  2.00E+02        96            3.39E-05 
       251    16.957  1.50E+02      95.4            3.39E-05 
       252    16.965  1.10E+02      94.8            3.40E-05 
       253    16.973 -1.40E+02      94.1            3.43E-05 
       254    16.981  4.10E+02      93.5            3.36E-05 
       255    16.988  2.50E+02      92.9            3.38E-05 
       256    16.996 -3.00E+01      92.3            3.42E-05 
       257    17.004  1.50E+02      91.7            3.40E-05 
       258    17.012  1.70E+02      91.1            3.39E-05 
       259    17.019  2.30E+02      90.4            3.39E-05 
       260    17.027  1.80E+02      89.8            3.39E-05 
       261    17.035  5.20E+02      89.2            3.36E-05 
       262    17.043  2.50E+02      88.6            3.39E-05 
       263    17.050 -1.30E+02      88.1            3.43E-05 
       264    17.058  4.70E+02      87.5            3.36E-05 
       265    17.066  4.00E+01      86.9            3.41E-05 
       266    17.074  2.50E+02      86.3            3.39E-05 
       267    17.082  4.40E+02      85.7            3.37E-05 
       268    17.089  1.60E+02      85.1            3.40E-05 
       269    17.097  3.60E+02      84.5            3.38E-05 
       270    17.105  3.90E+02        84            3.38E-05 
       271    17.113  2.10E+02      83.4            3.40E-05 
       272    17.120 -4.00E+01      82.8            3.43E-05 
       273    17.128  1.80E+02      82.3            3.40E-05 
       274    17.136  2.50E+02      81.7            3.39E-05 
       275    17.144  1.40E+02      81.1            3.41E-05 
       276    17.151  2.30E+02      80.6            3.40E-05 
       277    17.159  2.70E+02        80            3.39E-05 
       278    17.167  9.00E+01      79.5            3.41E-05 
       279    17.175 -1.00E+02      78.9            3.44E-05 
       280    17.183  2.60E+02      78.4            3.40E-05 
       281    17.190 -5.00E+01      77.8            3.43E-05 
       282    17.198  4.70E+02      77.3            3.37E-05 
       283    17.206  2.40E+02      76.8            3.40E-05 
       284    17.214  3.30E+02      76.2            3.39E-05 
       285    17.221  4.30E+02      75.7            3.38E-05 
       286    17.229  3.40E+02      75.2            3.39E-05 
       287    17.237  1.60E+02      74.6            3.41E-05 
       288    17.245  2.40E+02      74.1            3.40E-05 
       289    17.252  2.90E+02      73.6            3.40E-05 
       290    17.260  4.90E+02      73.1            3.37E-05 
       291    17.268  5.80E+02      72.6            3.36E-05 
       292    17.276  1.00E+01      72.1            3.43E-05 
       293    17.283 -4.00E+01      71.5            3.44E-05 
       294    17.291  2.20E+02        71            3.41E-05 
       295    17.299  8.00E+01      70.5            3.42E-05 
       296    17.307 -2.00E+01        70            3.43E-05 
       297    17.315  2.10E+02      69.5            3.41E-05 
       298    17.322  9.00E+01        69            3.42E-05 
       299    17.330  1.90E+02      68.5            3.41E-05 
       300    17.338  4.50E+02        68            3.38E-05 
       301    17.346  9.00E+01      67.6            3.42E-05 
       302    17.353  1.10E+02      67.1            3.42E-05 
       303    17.361  1.70E+02      66.6            3.41E-05 
       304    17.369  1.90E+02      66.1            3.41E-05 
       305    17.377  5.00E+01      65.6            3.43E-05 
       306    17.384 -6.00E+01      65.1            3.44E-05 
       307    17.392  7.00E+01      64.7            3.43E-05 
       308    17.400  3.60E+02      64.2            3.39E-05 
       309    17.408  5.00E+01      63.7            3.43E-05 
       310    17.416  2.90E+02      63.3            3.40E-05 
       311    17.423  2.80E+02      62.8            3.41E-05 
       312    17.431  4.00E+01      62.3            3.43E-05 
       313    17.439 -6.00E+01      61.9            3.45E-05 
       314    17.447  1.30E+02      61.4            3.42E-05 
       315    17.454  3.20E+02        61            3.40E-05 
       316    17.462  2.50E+02      60.5            3.41E-05 
       317    17.470  1.20E+02      60.1            3.42E-05 
       318    17.478  1.10E+02      59.6            3.43E-05 
       319    17.485  4.00E+01      59.2            3.44E-05 
       320    17.493  9.00E+01      58.7            3.43E-05 
       321    17.501  2.20E+02      58.3            3.42E-05 
       322    17.509  1.20E+02      57.9            3.43E-05 
       323    17.517  6.00E+01      57.4            3.43E-05 
       324    17.524  1.30E+02        57            3.43E-05 
       325    17.532  1.90E+02      56.6            3.42E-05 
       326    17.540  3.10E+02      56.1            3.41E-05 
       327    17.548  4.30E+02      55.7            3.39E-05 
       328    17.555  1.90E+02      55.3            3.42E-05 
       329    17.563  2.00E+01      54.9            3.44E-05 
       330    17.571  3.10E+02      54.4            3.41E-05 
       331    17.579  0.00E+00        54            3.44E-05 
       332    17.586  3.00E+01      53.6            3.44E-05 
       333    17.594  1.70E+02      53.2            3.43E-05 
       334    17.602  0.00E+00      52.8            3.45E-05 
       335    17.610  1.50E+02      52.4            3.43E-05 
       336    17.617  2.60E+02        52            3.42E-05 
       337    17.625  0.00E+00      51.6            3.45E-05 
       338    17.633  4.00E+01      51.2            3.44E-05 
       339    17.641  1.10E+02      50.8            3.43E-05 
       340    17.649  2.00E+02      50.4            3.42E-05 
       341    17.656  3.20E+02        50            3.41E-05 
       342    17.664  3.80E+02      49.6            3.40E-05 
       343    17.672 -4.00E+01      49.2            3.45E-05 
       344    17.680  3.50E+02      48.8            3.41E-05 
       345    17.687  8.00E+01      48.4            3.44E-05 
       346    17.695  1.10E+02        48            3.44E-05 
       347    17.703  1.20E+02      47.7            3.44E-05 
       348    17.711 -1.20E+02      47.3            3.47E-05 
       349    17.718 -1.90E+02      46.9            3.47E-05 
       350    17.726  2.20E+02      46.5            3.43E-05 
       351    17.734  1.80E+02      46.2            3.43E-05 
       352    17.742  6.70E+02      45.8            3.37E-05 
       353    17.750  1.00E+02      45.4            3.44E-05 
       354    17.757 -1.30E+02      45.1            3.47E-05 
       355    17.765  2.00E+02      44.7            3.43E-05 
       356    17.773  2.00E+01      44.3            3.45E-05 
       357    17.781 -1.50E+02        44            3.47E-05 
       358    17.788  2.80E+02      43.6            3.42E-05 
       359    17.796  5.00E+01      43.3            3.45E-05 
       360    17.804 -1.10E+02      42.9            3.47E-05 
       361    17.812 -1.30E+02      42.6            3.47E-05 
       362    17.819 -1.60E+02      42.2            3.48E-05 
       363    17.827 -7.00E+01      41.9            3.46E-05 
       364    17.835  1.00E+02      41.5            3.45E-05 
       365    17.843  2.30E+02      41.2            3.43E-05 
       366    17.850  3.20E+02      40.8            3.42E-05 
       367    17.858  1.20E+02      40.5            3.44E-05 
       368    17.866 -1.80E+02      40.2            3.48E-05 
       369    17.874  3.00E+01      39.8            3.45E-05 
       370    17.882  3.10E+02      39.5            3.42E-05 
       371    17.889  3.50E+02      39.2            3.42E-05 
       372    17.897  1.50E+02      38.8            3.44E-05 
       373    17.905  3.00E+02      38.5            3.42E-05 
       374    17.913  3.80E+02      38.2            3.42E-05 
       375    17.920  1.90E+02      37.9            3.44E-05 
       376    17.928 -9.00E+01      37.5            3.47E-05 
       377    17.936  1.00E+02      37.2            3.45E-05 
       378    17.944 -5.00E+01      36.9            3.47E-05 
       379    17.951  1.40E+02      36.6            3.44E-05 
       380    17.959  1.10E+02      36.3            3.45E-05 
       381    17.967  3.70E+02        36            3.42E-05 
       382    17.975 -1.00E+01      35.7            3.46E-05 
       383    17.983  3.80E+02      35.3            3.42E-05 
       384    17.990 -5.00E+01        35            3.47E-05 
       385    17.998 -3.00E+01      34.7            3.47E-05 
       386    18.006 -3.00E+01      34.4            3.47E-05 
       387    18.014  1.50E+02      34.1            3.45E-05 
       388    18.021  2.10E+02      33.8            3.44E-05 
       389    18.029 -1.00E+01      33.5            3.47E-05 
       390    18.037  7.00E+01      33.2            3.46E-05 
       391    18.045  4.80E+02        33            3.41E-05 
       392    18.052  9.00E+01      32.7            3.46E-05 
       393    18.060 -9.00E+01      32.4            3.48E-05 
       394    18.068  3.00E+01      32.1            3.46E-05 
       395    18.076  3.40E+02      31.8            3.43E-05 
       396    18.083 -2.40E+02      31.5            3.50E-05 
       397    18.091  4.00E+01      31.2            3.46E-05 
       398    18.099  2.10E+02        31            3.44E-05 
       399    18.107  0.00E+00      30.7            3.47E-05 
       400    18.115 -1.10E+02      30.4            3.48E-05 
       401    18.122 -9.00E+01      30.1            3.48E-05 
       402    18.130  1.80E+02      29.9            3.45E-05 
       403    18.138  1.00E+01      29.6            3.47E-05 
       404    18.146  4.50E+02      29.3            3.42E-05 
       405    18.153  3.70E+02      29.1            3.43E-05 
       406    18.161  3.20E+02      28.8            3.43E-05 
       407    18.169  2.70E+02      28.5            3.44E-05 
       408    18.177 -3.00E+01      28.3            3.48E-05 
       409    18.184  3.30E+02        28            3.43E-05 
       410    18.192  1.00E+02      27.7            3.46E-05 
       411    18.200 -1.00E+01      27.5            3.48E-05 
       412    18.208 -1.30E+02      27.2            3.49E-05 
       413    18.216  8.00E+01        27            3.47E-05 
       414    18.223  1.70E+02      26.7            3.45E-05 
       415    18.231  4.00E+01      26.5            3.47E-05 
       416    18.239 -1.20E+02      26.2            3.49E-05 
       417    18.247  1.50E+02        26            3.46E-05 
       418    18.254  1.90E+02      25.7            3.45E-05 
       419    18.262  2.20E+02      25.5            3.45E-05 
       420    18.270  2.20E+02      25.3            3.45E-05 
       421    18.278 -1.00E+01        25            3.48E-05 
       422    18.285  9.00E+01      24.8            3.47E-05 
       423    18.293  2.00E+01      24.5            3.48E-05 
       424    18.301  0.00E+00      24.3            3.48E-05 
       425    18.309  3.20E+02      24.1            3.44E-05 
       426    18.317  1.30E+02      23.8            3.46E-05 
       427    18.324  1.30E+02      23.6            3.46E-05 
       428    18.332  1.40E+02      23.4            3.46E-05 
       429    18.340  3.30E+02      23.2            3.44E-05 
       430    18.348 -1.80E+02      22.9            3.50E-05 
       431    18.355  2.10E+02      22.7            3.46E-05 
       432    18.363 -9.00E+01      22.5            3.49E-05 
       433    18.371  2.10E+02      22.3            3.46E-05 
       434    18.379  1.50E+02        22            3.46E-05 
       435    18.386 -1.90E+02      21.8            3.51E-05 
       436    18.394  4.00E+01      21.6            3.48E-05 
       437    18.402  4.20E+02      21.4            3.43E-05 
       438    18.410  2.10E+02      21.2            3.46E-05 
       439    18.417  1.80E+02        21            3.46E-05 
       440    18.425  4.00E+01      20.8            3.48E-05 
       441    18.433  2.40E+02      20.6            3.46E-05 
       442    18.441  2.40E+02      20.3            3.46E-05 
       443    18.449  4.90E+02      20.1            3.43E-05 
       444    18.456  1.70E+02      19.9            3.47E-05 
       445    18.464 -3.00E+01      19.7            3.49E-05 
       446    18.472  4.00E+01      19.5            3.48E-05 
       447    18.480  4.00E+02      19.3            3.44E-05 
       448    18.487  1.30E+02      19.1            3.47E-05 
       449    18.495  2.50E+02      18.9            3.46E-05 
       450    18.503  2.70E+02      18.7            3.46E-05 
       451    18.511 -3.00E+01      18.6            3.49E-05 
       452    18.518  1.00E+01      18.4            3.49E-05 
       453    18.526  1.30E+02      18.2            3.47E-05 
       454    18.534  2.80E+02        18            3.46E-05 
       455    18.542  9.00E+01      17.8            3.48E-05 
       456    18.550 -2.00E+01      17.6            3.49E-05 
       457    18.557  1.70E+02      17.4            3.47E-05 
       458    18.565  1.50E+02      17.2            3.47E-05 
       459    18.573  9.00E+01      17.1            3.48E-05 
       460    18.581 -3.00E+01      16.9            3.50E-05 
       461    18.588  1.70E+02      16.7            3.47E-05 
       462    18.596 -7.00E+01      16.5            3.50E-05 
       463    18.604  2.00E+02      16.3            3.47E-05 
       464    18.612  1.80E+02      16.2            3.47E-05 
       465    18.619  5.00E+01        16            3.49E-05 
       466    18.627  2.00E+01      15.8            3.49E-05 
       467    18.635  1.00E+02      15.7            3.48E-05 
       468    18.643 -2.30E+02      15.5            3.52E-05 
       469    18.650  6.00E+01      15.3            3.49E-05 
       470    18.658  2.00E+01      15.2            3.49E-05 
       471    18.666  1.00E+02        15            3.48E-05 
       472    18.674  1.60E+02      14.8            3.48E-05 
       473    18.682  2.60E+02      14.7            3.47E-05 
       474    18.689  1.60E+02      14.5            3.48E-05 
       475    18.697  1.60E+02      14.3            3.48E-05 
       476    18.705  4.30E+02      14.2            3.45E-05 
       477    18.713  1.00E+01        14            3.50E-05 
       478    18.720  2.10E+02      13.9            3.47E-05 
       479    18.728  2.00E+01      13.7            3.50E-05 
       480    18.736  2.50E+02      13.6            3.47E-05 
       481    18.744  9.00E+01      13.4            3.49E-05 
       482    18.751  4.00E+01      13.3            3.50E-05 
       483    18.759  1.80E+02      13.1            3.48E-05 
       484    18.767  1.10E+02        13            3.49E-05 
       485    18.775  2.60E+02      12.8            3.47E-05 
       486    18.783  1.80E+02      12.7            3.48E-05 
       487    18.790  2.40E+02      12.5            3.48E-05 
       488    18.798  2.60E+02      12.4            3.47E-05 
       489    18.806  5.00E+01      12.3            3.50E-05 
       490    18.814  4.70E+02      12.1            3.45E-05 
       491    18.821  5.00E+01        12            3.50E-05 
       492    18.829  1.10E+02      11.8            3.49E-05 
       493    18.837  4.20E+02      11.7            3.46E-05 
       494    18.845  5.10E+02      11.6            3.45E-05 
       495    18.852  3.20E+02      11.4            3.47E-05 
       496    18.860  2.60E+02      11.3            3.48E-05 
       497    18.868  3.10E+02      11.2            3.47E-05 
       498    18.876  6.60E+02        11            3.43E-05 
       499    18.883  3.00E+01      10.9            3.51E-05 
       500    18.891  2.10E+02      10.8            3.49E-05 
       501    18.899  4.00E+01      10.7            3.51E-05 
       502    18.907  4.80E+02      10.5            3.46E-05 
       503    18.915 -3.00E+01      10.4            3.52E-05 
       504    18.922 -6.00E+01      10.3            3.52E-05 
       505    18.930  2.90E+02      10.2            3.48E-05 
       506    18.938  5.90E+02      10.1            3.45E-05 
       507    18.946  2.50E+02      9.94            3.49E-05 
       508    18.953  4.40E+02      9.82            3.47E-05 
       509    18.961  1.30E+02      9.71            3.50E-05 
       510    18.969  1.30E+02      9.59            3.50E-05 
       511    18.977 -1.50E+02      9.48            3.54E-05 
       512    18.984  1.50E+02      9.36            3.50E-05 
       513    18.992  2.50E+02      9.25            3.49E-05 
       514    19.000  1.60E+02      9.14            3.50E-05 
       515    19.008  1.40E+02      9.03            3.50E-05 
       516    19.016  2.00E+02      8.93            3.50E-05 
       517    19.023  3.00E+02      8.82            3.48E-05 
       518    19.031  2.90E+02      8.71            3.49E-05 
       519    19.039  2.00E+02      8.61            3.50E-05 
       520    19.047  1.00E+01      8.51            3.52E-05 
       521    19.054  4.00E+02       8.4            3.47E-05 
       522    19.062 -5.00E+01       8.3            3.53E-05 
       523    19.070  3.20E+02       8.2            3.48E-05 
       524    19.078  3.60E+02       8.1            3.48E-05 
       525    19.085  5.50E+02      8.01            3.45E-05 
       526    19.093  2.80E+02      7.91            3.49E-05 
       527    19.101  1.30E+02      7.81            3.51E-05 
       528    19.109  3.50E+02      7.72            3.48E-05 
       529    19.117  3.00E+01      7.63            3.52E-05 
       530    19.124  3.20E+02      7.53            3.48E-05 
       531    19.132  5.00E+01      7.44            3.52E-05 
       532    19.140  2.40E+02      7.35            3.49E-05 
       533    19.148  3.00E+01      7.26            3.52E-05 
       534    19.155  3.00E+02      7.17            3.49E-05 
       535    19.163  3.50E+02      7.09            3.48E-05 
       536    19.171  1.70E+02         7            3.50E-05 
       537    19.179 -1.00E+01      6.92            3.53E-05 
       538    19.186  5.60E+02      6.83            3.46E-05 
       539    19.194  3.50E+02       213            3.48E-05 
       540    19.202 -5.00E+01       217            3.53E-05 
       541    19.210  5.10E+02       221            3.46E-05 
       542    19.217  3.50E+02       224            3.48E-05 
       543    19.225  2.30E+02       228            3.50E-05 
       544    19.233  3.60E+02       232            3.48E-05 
       545    19.241  2.70E+02       236            3.49E-05 
       546    19.249  1.60E+02       240            3.51E-05 
       547    19.256  4.00E+02       244            3.48E-05 
       548    19.264  3.60E+02       249            3.48E-05 
       549    19.272  2.40E+02       253            3.50E-05 
       550    19.280  5.60E+02       258            3.46E-05 
       551    19.287  4.00E+02       263            3.48E-05 
       552    19.295  3.50E+02       268            3.49E-05 
       553    19.303  2.90E+02       273            3.50E-05 
       554    19.311  3.80E+02       278            3.49E-05 
       555    19.318 -1.80E+02       283            3.55E-05 
       556    19.326  4.10E+02       289            3.48E-05 
       557    19.334  3.20E+02       294            3.49E-05 
       558    19.342  3.90E+02       300            3.49E-05 
       559    19.350  2.20E+02       306            3.51E-05 
       560    19.357  3.40E+02       313            3.49E-05 
       561    19.365  5.00E+02       319            3.48E-05 
       562    19.373  5.40E+02       326            3.47E-05 
       563    19.381  4.30E+02       333            3.49E-05 
       564    19.388  8.10E+02       340            3.44E-05 
       565    19.396  3.90E+02       347            3.49E-05 
       566    19.404  2.90E+02       355            3.50E-05 
       567    19.412  6.60E+02       363            3.46E-05 
       568    19.419  5.10E+02       371            3.48E-05 
       569    19.427  4.40E+02       379            3.49E-05 
       570    19.435  4.70E+02       388            3.48E-05 
       571    19.443  4.70E+02       397            3.48E-05 
       572    19.450  2.40E+02       407            3.51E-05 
       573    19.458  2.90E+02       416            3.51E-05 
       574    19.466  4.90E+02       426            3.48E-05 
       575    19.474  3.30E+02       437            3.50E-05 
       576    19.482  1.80E+02       448            3.52E-05 
       577    19.489  5.50E+02       459            3.48E-05 
       578    19.497  2.20E+02       471            3.52E-05 
       579    19.505  5.60E+02       483            3.48E-05 
       580    19.513  5.80E+02       496            3.48E-05 
       581    19.520  4.30E+02       509            3.49E-05 
       582    19.528  6.80E+02       523            3.47E-05 
       583    19.536  5.60E+02       537            3.48E-05 
       584    19.544  1.30E+02       552            3.53E-05 
       585    19.551  8.00E+02       567            3.45E-05 
       586    19.559  6.60E+02       584            3.47E-05 
       587    19.567  4.00E+02       600            3.50E-05 
       588    19.575  7.60E+02       618            3.46E-05 
       589    19.583  7.60E+02       637            3.46E-05 
       590    19.590  5.00E+02       656            3.49E-05 
       591    19.598  7.40E+02       676            3.46E-05 
       592    19.606  9.80E+02       698            3.43E-05 
       593    19.614  4.10E+02       720            3.50E-05 
       594    19.621  7.20E+02       743            3.47E-05 
       595    19.629  5.50E+02       768            3.49E-05 
       596    19.637  7.50E+02       793            3.46E-05 
       597    19.645  6.10E+02       820            3.48E-05 
       598    19.652  7.60E+02       849            3.46E-05 
       599    19.660  8.80E+02       879            3.45E-05 
       600    19.668  6.10E+02       910            3.48E-05 
       601    19.676  8.40E+02       944            3.46E-05 
       602    19.684  8.00E+02       979            3.46E-05 
       603    19.691  6.40E+02  1.02E+03            3.48E-05 
       604    19.699  7.80E+02  1.06E+03            3.47E-05 
       605    19.707  1.08E+03  1.10E+03            3.43E-05 
       606    19.715  7.20E+02  1.14E+03            3.47E-05 
       607    19.722  8.40E+02  1.19E+03            3.46E-05 
       608    19.730  9.40E+02  1.24E+03            3.45E-05 
       609    19.738  9.70E+02  1.29E+03            3.44E-05 
       610    19.746  6.10E+02  1.35E+03            3.49E-05 
       611    19.753  7.70E+02  1.41E+03            3.47E-05 
       612    19.761  8.80E+02  1.47E+03            3.46E-05 
       613    19.769  9.90E+02  1.54E+03            3.44E-05 
       614    19.777  1.18E+03  1.62E+03            3.42E-05 
       615    19.784  1.22E+03  1.70E+03            3.42E-05 
       616    19.792  1.02E+03  1.78E+03            3.44E-05 
       617    19.800  1.01E+03  1.87E+03            3.45E-05 
       618    19.808  1.22E+03  1.97E+03            3.42E-05 
       619    19.816  1.23E+03  2.08E+03            3.42E-05 
       620    19.823  1.34E+03  2.19E+03            3.41E-05 
       621    19.831  1.60E+03  2.32E+03            3.38E-05 
       622    19.839  1.47E+03  2.46E+03            3.39E-05 
       623    19.847  1.51E+03  2.61E+03            3.39E-05 
       624    19.854  1.75E+03  2.77E+03            3.36E-05 
       625    19.862  1.93E+03  2.95E+03            3.34E-05 
       626    19.870  1.87E+03  3.15E+03            3.35E-05 
       627    19.878  2.04E+03  3.36E+03            3.33E-05 
       628    19.885  2.19E+03  3.60E+03            3.32E-05 
       629    19.893  2.58E+03  3.87E+03            3.27E-05 
       630    19.901  2.85E+03  4.17E+03            3.25E-05 
       631    19.909  2.97E+03  4.50E+03            3.23E-05 
       632    19.917  3.39E+03  4.87E+03            3.19E-05 
       633    19.924  3.90E+03  5.29E+03            3.14E-05 
       634    19.932  4.37E+03  5.78E+03            3.10E-05 
       635    19.940  5.01E+03  6.34E+03            3.04E-05 
       636    19.948  6.14E+03  7.00E+03            2.94E-05 
       637    19.955  7.55E+03  7.82E+03            2.82E-05 
       638    19.963  9.39E+03  8.84E+03            2.68E-05 
       639    19.971  1.15E+04  1.02E+04            2.54E-05 
       640    19.979  1.34E+04  1.20E+04            2.42E-05 
       641    19.986  1.72E+04  1.45E+04            2.22E-05 
       642    19.994  2.11E+04  1.81E+04            2.04E-05 
       643    20.002  2.63E+04  2.30E+04            1.84E-05 
       644    20.010  3.27E+04  2.99E+04            1.65E-05 
       645    20.017  4.16E+04  3.93E+04            1.44E-05 
       646    20.025  5.22E+04  5.16E+04            1.25E-05 
       647    20.033  6.55E+04  6.73E+04            1.07E-05 
       648    20.041  8.28E+04  8.66E+04            9.03E-06 
       649    20.049  1.04E+05  1.09E+05            7.59E-06 
       650    20.056  1.30E+05  1.34E+05            6.35E-06 
       651    20.064  1.57E+05  1.61E+05            5.42E-06 
       652    20.072  1.87E+05  1.87E+05            4.64E-06 
       653    20.080  2.13E+05  2.10E+05            4.16E-06 
       654    20.087  2.32E+05  2.27E+05            3.85E-06 
       655    20.095  2.39E+05  2.34E+05            3.75E-06 
       656    20.103  2.35E+05  2.32E+05            3.81E-06 
       657    20.111  2.19E+05  2.19E+05            4.04E-06 
       658    20.118  1.97E+05  1.99E+05            4.44E-06 
       659    20.126  1.70E+05  1.74E+05            5.06E-06 
       660    20.134  1.42E+05  1.48E+05            5.90E-06 
       661    20.142  1.16E+05  1.22E+05            6.96E-06 
       662    20.150  9.46E+04  9.77E+04            8.17E-06 
       663    20.157  7.62E+04  7.67E+04            9.61E-06 
       664    20.165  6.06E+04  5.92E+04            1.13E-05 
       665    20.173  4.83E+04  4.52E+04            1.31E-05 
       666    20.181  3.81E+04  3.44E+04            1.52E-05 
       667    20.188  3.07E+04  2.63E+04            1.71E-05 
       668    20.196  2.41E+04  2.04E+04            1.93E-05 
       669    20.204  1.94E+04  1.62E+04            2.12E-05 
       670    20.212  1.47E+04  1.32E+04            2.35E-05 
       671    20.219  1.20E+04  1.11E+04            2.52E-05 
       672    20.227  9.73E+03  9.48E+03            2.67E-05 
       673    20.235  7.54E+03  8.31E+03            2.83E-05 
       674    20.243  6.37E+03  7.40E+03            2.93E-05 
       675    20.250  5.04E+03  6.66E+03            3.05E-05 
       676    20.258  4.08E+03  6.05E+03            3.14E-05 
       677    20.266  3.77E+03  5.53E+03            3.17E-05 
       678    20.274  3.45E+03  5.08E+03            3.21E-05 
       679    20.282  3.07E+03  4.68E+03            3.25E-05 
       680    20.289  2.49E+03  4.33E+03            3.31E-05 
       681    20.297  2.04E+03  4.02E+03            3.36E-05 
       682    20.305  2.14E+03  3.74E+03            3.35E-05 
       683    20.313  2.25E+03  3.48E+03            3.34E-05 
       684    20.320  2.07E+03  3.26E+03            3.36E-05 
       685    20.328  1.97E+03  3.05E+03            3.37E-05 
       686    20.336  1.80E+03  2.86E+03            3.39E-05 
       687    20.344  1.38E+03  2.69E+03            3.44E-05 
       688    20.351  1.50E+03  2.53E+03            3.43E-05 
       689    20.359  1.41E+03  2.39E+03            3.44E-05 
       690    20.367  1.65E+03  2.26E+03            3.41E-05 
       691    20.375  1.39E+03  2.25E+03            3.44E-05 
       692    20.383  1.45E+03  2.14E+03            3.43E-05 
       693    20.390  1.22E+03  2.04E+03            3.46E-05 
       694    20.398  1.41E+03  1.95E+03            3.44E-05 
       695    20.406  1.18E+03  1.86E+03            3.47E-05 
       696    20.414  1.33E+03  1.78E+03            3.45E-05 
       697    20.421  1.25E+03  1.71E+03            3.46E-05 
       698    20.429  1.15E+03  1.64E+03            3.47E-05 
       699    20.437  1.40E+03  1.58E+03            3.44E-05 
       700    20.445  7.80E+02  1.52E+03            3.52E-05 
       701    20.452  9.30E+02  1.46E+03            3.50E-05 
       702    20.460  1.38E+03  1.41E+03            3.45E-05 
       703    20.468  9.10E+02  1.36E+03            3.50E-05 
       704    20.476  1.06E+03  1.31E+03            3.49E-05 
       705    20.484  1.19E+03  1.27E+03            3.47E-05 
       706    20.491  9.70E+02  1.23E+03            3.50E-05 
       707    20.499  1.01E+03  1.19E+03            3.49E-05 
       708    20.507  9.60E+02  1.16E+03            3.50E-05 
       709    20.515  8.60E+02  1.12E+03            3.51E-05 
       710    20.522  1.35E+03  1.09E+03            3.46E-05 
       711    20.530  5.90E+02  1.06E+03            3.55E-05 
       712    20.538  9.20E+02  1.04E+03            3.51E-05 
       713    20.546  6.10E+02  1.01E+03            3.55E-05 
       714    20.553  8.80E+02       988            3.51E-05 
       715    20.561  9.20E+02       965            3.51E-05 
       716    20.569  5.50E+02       944            3.56E-05 
       717    20.577  5.70E+02       924            3.56E-05 
       718    20.584  8.70E+02       906            3.52E-05 
       719    20.592  5.50E+02       889            3.56E-05 
       720    20.600  5.10E+02       872            3.56E-05 
       721    20.608  5.50E+02       857            3.56E-05 
       722    20.616  8.00E+02       843            3.53E-05 
       723    20.623  7.30E+02       830            3.54E-05 
       724    20.631  8.30E+02       818            3.53E-05 
       725    20.639  6.40E+02       807            3.55E-05 
       726    20.647  8.30E+02       797            3.53E-05 
       727    20.654  5.10E+02       788            3.57E-05 
       728    20.662  8.60E+02       779            3.53E-05 
       729    20.670  2.90E+02       771            3.60E-05 
       730    20.678  2.60E+02       764            3.60E-05 
       731    20.685  4.80E+02       758            3.58E-05 
       732    20.693  4.20E+02       753            3.58E-05 
       733    20.701  7.30E+02       748            3.54E-05 
       734    20.709  7.50E+02       745            3.54E-05 
       735    20.717  6.60E+02       741            3.56E-05 
       736    20.724  6.40E+02       739            3.56E-05 
       737    20.732  7.70E+02       738            3.55E-05 
       738    20.740  6.80E+02       737            3.56E-05 
       739    20.748  5.70E+02       737            3.57E-05 
       740    20.755  5.00E+02       737            3.58E-05 
       741    20.763  4.20E+02       739            3.59E-05 
       742    20.771  5.40E+02       741            3.58E-05 
       743    20.779  5.20E+02       744            3.58E-05 
       744    20.786  4.80E+02       747            3.59E-05 
       745    20.794  5.00E+02       752            3.59E-05 
       746    20.802  2.50E+02       758            3.62E-05 
       747    20.810  8.10E+02       764            3.55E-05 
       748    20.817  5.80E+02       771            3.58E-05 
       749    20.825  6.80E+02       779            3.57E-05 
       750    20.833  5.30E+02       789            3.59E-05 
       751    20.841  5.10E+02       799            3.59E-05 
       752    20.849  5.90E+02       810            3.58E-05 
       753    20.856  9.30E+02       823            3.54E-05 
       754    20.864  4.40E+02       836            3.61E-05 
       755    20.872  8.70E+02       851            3.55E-05 
       756    20.880  8.20E+02       868            3.56E-05 
       757    20.887  5.20E+02       885            3.60E-05 
       758    20.895  7.90E+02       905            3.57E-05 
       759    20.903  6.80E+02       926            3.58E-05 
       760    20.911  4.50E+02       948            3.61E-05 
       761    20.918  8.00E+02       973            3.57E-05 
       762    20.926  9.10E+02      1000            3.56E-05 
       763    20.934  6.80E+02  1.03E+03            3.59E-05 
       764    20.942  5.60E+02  1.06E+03            3.60E-05 
       765    20.950  4.80E+02  1.09E+03            3.61E-05 
       766    20.957  6.50E+02  1.13E+03            3.59E-05 
       767    20.965  9.70E+02  1.17E+03            3.55E-05 
       768    20.973  5.10E+02  1.21E+03            3.61E-05 
       769    20.981  9.30E+02  1.26E+03            3.56E-05 
       770    20.988  8.50E+02  1.31E+03            3.57E-05 
       771    20.996  9.10E+02  1.37E+03            3.57E-05 
       772    21.004  1.00E+03  1.22E+03            3.56E-05 
       773    21.012  8.60E+02  1.29E+03            3.57E-05 
       774    21.019  9.20E+02  1.37E+03            3.57E-05 
       775    21.027  1.14E+03  1.45E+03            3.54E-05 
       776    21.035  9.70E+02  1.54E+03            3.56E-05 
       777    21.043  8.60E+02  1.64E+03            3.58E-05 
       778    21.050  1.18E+03  1.75E+03            3.54E-05 
       779    21.058  1.06E+03  1.86E+03            3.56E-05 
       780    21.066  1.18E+03  2.00E+03            3.54E-05 
       781    21.074  1.14E+03  2.14E+03            3.55E-05 
       782    21.082  1.32E+03  2.30E+03            3.53E-05 
       783    21.089  1.24E+03  2.48E+03            3.54E-05 
       784    21.097  1.70E+03  2.69E+03            3.48E-05 
       785    21.105  1.74E+03  2.92E+03            3.48E-05 
       786    21.113  2.11E+03  3.18E+03            3.43E-05 
       787    21.120  2.30E+03  3.48E+03            3.41E-05 
       788    21.128  2.67E+03  3.84E+03            3.37E-05 
       789    21.136  3.27E+03  4.27E+03            3.31E-05 
       790    21.144  3.54E+03  4.81E+03            3.28E-05 
       791    21.151  4.48E+03  5.51E+03            3.18E-05 
       792    21.159  5.73E+03  6.45E+03            3.06E-05 
       793    21.167  7.23E+03  7.75E+03            2.93E-05 
       794    21.175  9.01E+03  9.57E+03            2.78E-05 
       795    21.183  1.17E+04  1.21E+04            2.59E-05 
       796    21.190  1.49E+04  1.57E+04            2.39E-05 
       797    21.198  1.96E+04  2.05E+04            2.15E-05 
       798    21.206  2.53E+04  2.70E+04            1.92E-05 
       799    21.214  3.25E+04  3.52E+04            1.68E-05 
       800    21.221  4.22E+04  4.55E+04            1.45E-05 
       801    21.229  5.41E+04  5.76E+04            1.23E-05 
       802    21.237  6.83E+04  7.14E+04            1.05E-05 
       803    21.245  8.44E+04  8.61E+04            8.99E-06 
       804    21.252  1.02E+05  1.01E+05            7.78E-06 
       805    21.260  1.17E+05  1.14E+05            6.96E-06 
       806    21.268  1.27E+05  1.25E+05            6.50E-06 
       807    21.276  1.33E+05  1.30E+05            6.24E-06 
       808    21.284  1.30E+05  1.30E+05            6.37E-06 
       809    21.291  1.23E+05  1.25E+05            6.67E-06 
       810    21.299  1.10E+05  1.15E+05            7.29E-06 
       811    21.307  9.60E+04  1.01E+05            8.15E-06 
       812    21.315  8.17E+04  8.65E+04            9.22E-06 
       813    21.322  6.80E+04  7.17E+04            1.06E-05 
       814    21.330  5.67E+04  5.80E+04            1.20E-05 
       815    21.338  4.69E+04  4.58E+04            1.36E-05 
       816    21.346  3.79E+04  3.55E+04            1.55E-05 
       817    21.353  3.11E+04  2.72E+04            1.73E-05 
       818    21.361  2.50E+04  2.07E+04            1.93E-05 
       819    21.369  2.08E+04  1.58E+04            2.11E-05 
       820    21.377  1.67E+04  1.22E+04            2.30E-05 
       821    21.384  1.32E+04  9.63E+03            2.51E-05 
       822    21.392  1.07E+04  7.80E+03            2.67E-05 
       823    21.400  8.53E+03  6.49E+03            2.84E-05 
       824    21.408  6.87E+03  5.54E+03            2.98E-05 
       825    21.416  5.80E+03  4.83E+03            3.08E-05 
       826    21.423  4.38E+03  4.29E+03            3.22E-05 
       827    21.431  3.55E+03  3.85E+03            3.31E-05 
       828    21.439  2.72E+03  3.49E+03            3.41E-05 
       829    21.447  2.76E+03  3.19E+03            3.40E-05 
       830    21.454  2.41E+03  2.93E+03            3.44E-05 
       831    21.462  1.91E+03  2.70E+03            3.51E-05 
       832    21.470  1.79E+03  2.49E+03            3.52E-05 
       833    21.478  1.34E+03  2.31E+03            3.58E-05 
       834    21.485  1.50E+03  2.15E+03            3.56E-05 
       835    21.493  1.49E+03  2.00E+03            3.56E-05 
       836    21.501  1.31E+03  1.87E+03            3.59E-05 
       837    21.509  1.07E+03  1.75E+03            3.62E-05 
       838    21.517  9.90E+02  1.65E+03            3.63E-05 
       839    21.524  1.04E+03  1.55E+03            3.63E-05 
       840    21.532  1.09E+03  1.46E+03            3.62E-05 
       841    21.540  1.14E+03  1.38E+03            3.62E-05 
       842    21.548  1.28E+03  1.30E+03            3.60E-05 
       843    21.555  9.70E+02  1.23E+03            3.64E-05 
       844    21.563  8.80E+02  1.17E+03            3.65E-05 
       845    21.571  9.10E+02  1.11E+03            3.65E-05 
       846    21.579  1.15E+03  1.05E+03            3.62E-05 
       847    21.586  6.90E+02  1.00E+03            3.68E-05 
       848    21.594  1.20E+03       955            3.62E-05 
       849    21.602  8.20E+02       911            3.67E-05 
       850    21.610  7.50E+02       871            3.68E-05 
       851    21.617  5.40E+02       833            3.71E-05 
       852    21.625  6.80E+02       797            3.69E-05 
       853    21.633  7.00E+02       764            3.69E-05 
       854    21.641  6.80E+02       733            3.69E-05 
       855    21.649  6.50E+02       703            3.70E-05 
       856    21.656  7.90E+02       676            3.68E-05 
       857    21.664  3.00E+02       650            3.75E-05 
       858    21.672  6.20E+02       625            3.70E-05 
       859    21.680  7.20E+02       602            3.69E-05 
       860    21.687  6.30E+02       581            3.71E-05 
       861    21.695  4.70E+02       560            3.73E-05 
       862    21.703  5.70E+02       541            3.72E-05 
       863    21.711  3.00E+02       522            3.76E-05 
       864    21.718  1.60E+02       505            3.78E-05 
       865    21.726  5.90E+02       489            3.72E-05 
       866    21.734  2.40E+02       473            3.77E-05 
       867    21.742  4.10E+02       458            3.74E-05 
       868    21.750  3.40E+02       444            3.76E-05 
       869    21.757  5.20E+02       430            3.73E-05 
       870    21.765  4.20E+02       417            3.75E-05 
       871    21.773  6.30E+02       405            3.72E-05 
       872    21.781  3.80E+02       393            3.76E-05 
       873    21.788  6.70E+02       382            3.72E-05 
       874    21.796  5.60E+02       372            3.73E-05 
       875    21.804  4.40E+02       361            3.75E-05 
       876    21.812  3.50E+02       352            3.76E-05 
       877    21.819  2.20E+02       342            3.78E-05 
       878    21.827  1.90E+02       333            3.79E-05 
       879    21.835  1.40E+02       325            3.80E-05 
       880    21.843  4.10E+02       317            3.76E-05 
       881    21.850  5.60E+02       309            3.74E-05 
       882    21.858  3.90E+02       301            3.77E-05 
       883    21.866  3.00E+01       418            3.82E-05 
       884    21.874  3.90E+02       413            3.77E-05 
       885    21.882  1.40E+02       408            3.81E-05 
       886    21.889  3.40E+02       404            3.78E-05 
       887    21.897  2.30E+02       400            3.80E-05 
       888    21.905  4.50E+02       397            3.77E-05 
       889    21.913  2.70E+02       393            3.79E-05 
       890    21.920  2.50E+02       390            3.80E-05 
       891    21.928  2.70E+02       388            3.80E-05 
       892    21.936  4.70E+02       385            3.77E-05 
       893    21.944  4.50E+02       383            3.77E-05 
       894    21.951  4.40E+02       381            3.77E-05 
       895    21.959  2.90E+02       379            3.80E-05 
       896    21.967  4.00E+02       378            3.78E-05 
       897    21.975  4.90E+02       376            3.77E-05 
       898    21.983  2.20E+02       375            3.81E-05 
       899    21.990  2.20E+02       375            3.81E-05 
       900    21.998  4.10E+02       374            3.79E-05 
       901    22.006  2.40E+02       374            3.81E-05 
       902    22.014  1.40E+02       374            3.83E-05 
       903    22.021  7.10E+02       374            3.75E-05 
       904    22.029  1.50E+02       374            3.83E-05 
       905    22.037  5.70E+02       375            3.77E-05 
       906    22.045  5.00E+02       375            3.78E-05 
       907    22.052  4.00E+02       376            3.80E-05 
       908    22.060  1.80E+02       378            3.83E-05 
       909    22.068  3.20E+02       379            3.81E-05 
       910    22.076  2.00E+01       381            3.85E-05 
       911    22.084  3.30E+02       383            3.81E-05 
       912    22.091  2.10E+02       385            3.83E-05 
       913    22.099  1.20E+02       388            3.85E-05 
       914    22.107  1.50E+02       390            3.84E-05 
       915    22.115  2.80E+02       393            3.83E-05 
       916    22.122  3.00E+02       397            3.83E-05 
       917    22.130  1.30E+02       400            3.85E-05 
       918    22.138  1.80E+02       404            3.85E-05 
       919    22.146  4.80E+02       408            3.81E-05 
       920    22.153  5.00E+02       412            3.80E-05 
       921    22.161  3.60E+02       417            3.83E-05 
       922    22.169  3.50E+02       422            3.83E-05 
       923    22.177  1.60E+02       427            3.86E-05 
       924    22.184  3.30E+02       318            3.84E-05 
       925    22.192  4.30E+02       325            3.82E-05 
       926    22.200  4.10E+02       334            3.83E-05 
       927    22.208 -6.00E+01       342            3.90E-05 
       928    22.216  4.60E+02       351            3.83E-05 
       929    22.223  2.90E+02       361            3.85E-05 
       930    22.231  3.10E+02       371            3.85E-05 
       931    22.239  4.20E+02       381            3.84E-05 
       932    22.247  6.40E+02       391            3.81E-05 
       933    22.254  3.60E+02       402            3.85E-05 
       934    22.262  7.80E+02       414            3.79E-05 
       935    22.270  2.60E+02       426            3.87E-05 
       936    22.278  4.50E+02       439            3.85E-05 
       937    22.285  5.60E+02       452            3.83E-05 
       938    22.293  3.50E+02       466            3.86E-05 
       939    22.301  6.10E+02       481            3.83E-05 
       940    22.309  5.20E+02       496            3.84E-05 
       941    22.317  3.80E+02       512            3.87E-05 
       942    22.324  2.30E+02       529            3.89E-05 
       943    22.332  3.30E+02       547            3.88E-05 
       944    22.340  4.40E+02       566            3.86E-05 
       945    22.348  3.20E+02       586            3.88E-05 
       946    22.355  6.90E+02       606            3.83E-05 
       947    22.363  6.30E+02       629            3.84E-05 
       948    22.371  6.90E+02       652            3.83E-05 
       949    22.379  5.90E+02       677            3.85E-05 
       950    22.386  2.70E+02       703            3.90E-05 
       951    22.394  6.30E+02       731            3.85E-05 
       952    22.402  3.50E+02       760            3.89E-05 
       953    22.410  6.50E+02       791            3.85E-05 
       954    22.417  4.80E+02       825            3.88E-05 
       955    22.425  5.80E+02       860            3.86E-05 
       956    22.433  6.10E+02       898            3.86E-05 
       957    22.441  8.60E+02       939            3.83E-05 
       958    22.449  4.90E+02       983            3.88E-05 
       959    22.456  7.20E+02  1.03E+03            3.85E-05 
       960    22.464  9.40E+02  1.08E+03            3.82E-05 
       961    22.472  6.30E+02  1.13E+03            3.87E-05 
       962    22.480  9.40E+02  1.19E+03            3.83E-05 
       963    22.487  1.02E+03  1.25E+03            3.82E-05 
       964    22.495  8.70E+02  1.32E+03            3.84E-05 
       965    22.503  4.70E+02  1.40E+03            3.90E-05 
       966    22.511  1.09E+03  1.48E+03            3.81E-05 
       967    22.518  1.06E+03  1.56E+03            3.82E-05 
       968    22.526  1.08E+03  1.66E+03            3.82E-05 
       969    22.534  1.12E+03  1.76E+03            3.81E-05 
       970    22.542  1.06E+03  1.88E+03            3.82E-05 
       971    22.550  1.37E+03  2.00E+03            3.78E-05 
       972    22.557  1.35E+03  2.14E+03            3.79E-05 
       973    22.565  1.57E+03  2.30E+03            3.76E-05 
       974    22.573  1.39E+03  2.47E+03            3.79E-05 
       975    22.581  1.55E+03  2.66E+03            3.76E-05 
       976    22.588  1.83E+03  2.88E+03            3.73E-05 
       977    22.596  2.15E+03  3.12E+03            3.69E-05 
       978    22.604  2.57E+03  3.40E+03            3.63E-05 
       979    22.612  2.80E+03  3.72E+03            3.60E-05 
       980    22.619  3.31E+03  4.09E+03            3.54E-05 
       981    22.627  4.01E+03  4.55E+03            3.46E-05 
       982    22.635  4.73E+03  5.11E+03            3.37E-05 
       983    22.643  5.29E+03  5.84E+03            3.31E-05 
       984    22.650  6.87E+03  6.82E+03            3.15E-05 
       985    22.658  8.22E+03  8.17E+03            3.02E-05 
       986    22.666  1.06E+04  1.00E+04            2.82E-05 
       987    22.674  1.30E+04  1.27E+04            2.64E-05 
       988    22.682  1.70E+04  1.64E+04            2.39E-05 
       989    22.689  2.16E+04  2.14E+04            2.15E-05 
       990    22.697  2.82E+04  2.80E+04            1.89E-05 
       991    22.705  3.64E+04  3.66E+04            1.63E-05 
       992    22.713  4.66E+04  4.73E+04            1.40E-05 
       993    22.720  5.91E+04  6.00E+04            1.19E-05 
       994    22.728  7.51E+04  7.45E+04            1.00E-05 
       995    22.736  9.28E+04  9.00E+04            8.51E-06 
       996    22.744  1.11E+05  1.06E+05            7.39E-06 
       997    22.751  1.27E+05  1.20E+05            6.59E-06 
       998    22.759  1.39E+05  1.32E+05            6.10E-06 
       999    22.767  1.45E+05  1.38E+05            5.89E-06 
      1000    22.775  1.42E+05  1.39E+05            6.00E-06 
      1001    22.783  1.35E+05  1.34E+05            6.27E-06 
      1002    22.790  1.22E+05  1.23E+05            6.83E-06 
      1003    22.798  1.06E+05  1.09E+05            7.66E-06 
      1004    22.806  8.88E+04  9.38E+04            8.82E-06 
      1005    22.814  7.33E+04  7.81E+04            1.02E-05 
      1006    22.821  6.02E+04  6.34E+04            1.18E-05 
      1007    22.829  4.82E+04  5.02E+04            1.37E-05 
      1008    22.837  3.91E+04  3.90E+04            1.57E-05 
      1009    22.845  3.10E+04  2.99E+04            1.80E-05 
      1010    22.852  2.42E+04  2.28E+04            2.05E-05 
      1011    22.860  1.97E+04  1.74E+04            2.26E-05 
      1012    22.868  1.57E+04  1.35E+04            2.49E-05 
      1013    22.876  1.26E+04  1.06E+04            2.70E-05 
      1014    22.884  1.01E+04  8.57E+03            2.90E-05 
      1015    22.891  7.97E+03  7.11E+03            3.08E-05 
      1016    22.899  6.70E+03  6.06E+03            3.21E-05 
      1017    22.907  5.09E+03  5.28E+03            3.39E-05 
      1018    22.915  3.90E+03  4.68E+03            3.53E-05 
      1019    22.922  3.25E+03  4.20E+03            3.62E-05 
      1020    22.930  3.07E+03  3.81E+03            3.64E-05 
      1021    22.938  2.74E+03  3.47E+03            3.69E-05 
      1022    22.946  2.10E+03  3.19E+03            3.78E-05 
      1023    22.953  2.09E+03  2.94E+03            3.78E-05 
      1024    22.961  1.37E+03  2.72E+03            3.89E-05 
      1025    22.969  1.51E+03  2.52E+03            3.87E-05 
      1026    22.977  1.07E+03  2.34E+03            3.94E-05 
      1027    22.984  1.36E+03  2.19E+03            3.90E-05 
      1028    22.992  1.20E+03  2.04E+03            3.93E-05 
      1029    23.000  1.19E+03  1.92E+03            3.93E-05 
      1030    23.008  1.27E+03  1.80E+03            3.92E-05 
      1031    23.016  1.04E+03  1.69E+03            3.96E-05 
      1032    23.023  9.10E+02  1.59E+03            3.98E-05 
      1033    23.031  1.02E+03  1.51E+03            3.96E-05 
      1034    23.039  7.60E+02  1.42E+03            4.01E-05 
      1035    23.047  7.70E+02  1.35E+03            4.01E-05 
      1036    23.054  1.05E+03  1.28E+03            3.96E-05 
      1037    23.062  1.23E+03  1.22E+03            3.94E-05 
      1038    23.070  1.04E+03  1.16E+03            3.97E-05 
      1039    23.078  8.20E+02  1.10E+03            4.01E-05 
      1040    23.085  7.70E+02  1.05E+03            4.02E-05 
      1041    23.093  6.30E+02  1.00E+03            4.04E-05 
      1042    23.101  6.50E+02       960            4.04E-05 
      1043    23.109  5.50E+02       919            4.06E-05 
      1044    23.117  5.70E+02       881            4.06E-05 
      1045    23.124  6.70E+02       845            4.05E-05 
      1046    23.132  3.10E+02       811            4.11E-05 
      1047    23.140  5.10E+02       780            4.08E-05 
      1048    23.148  4.70E+02       750            4.09E-05 
      1049    23.155  6.00E+02       722            4.07E-05 
      1050    23.163  3.30E+02       696            4.12E-05 
      1051    23.171  3.30E+02       671            4.12E-05 
      1052    23.179  5.10E+02       648            4.09E-05 
      1053    23.186  5.40E+02       625            4.09E-05 
      1054    23.194  4.20E+02       605            4.11E-05 
      1055    23.202  4.20E+02       585            4.11E-05 
      1056    23.210  5.00E+02       566            4.10E-05 
      1057    23.217  3.10E+02       548            4.14E-05 
      1058    23.225  4.30E+02       531            4.12E-05 
      1059    23.233  3.20E+02       515            4.14E-05 
      1060    23.241  2.70E+02       500            4.15E-05 
      1061    23.249  5.30E+02       485            4.11E-05 
      1062    23.256  3.90E+02       472            4.13E-05 
      1063    23.264  3.70E+02       458            4.14E-05 
      1064    23.272  5.40E+02       446            4.11E-05 
      1065    23.280  2.30E+02       434            4.17E-05 
      1066    23.287  4.70E+02       422            4.13E-05 
      1067    23.295  2.10E+02       411            4.18E-05 
      1068    23.303  4.20E+02       401            4.14E-05 
      1069    23.311  3.20E+02       391            4.16E-05 
      1070    23.318  2.60E+02       381            4.18E-05 
      1071    23.326  3.70E+02       372            4.16E-05 
      1072    23.334  3.40E+02       363            4.16E-05 
      1073    23.342  1.60E+02       355            4.20E-05 
      1074    23.350  1.30E+02       347            4.21E-05 
      1075    23.357  4.70E+02       339            4.15E-05 
      1076    23.365  5.10E+02       331            4.15E-05 
      1077    23.373  3.80E+02       324            4.17E-05 
      1078    23.381  5.20E+02       317            4.15E-05 
      1079    23.388  2.00E+02       311            4.21E-05 
      1080    23.396  1.30E+02       304            4.22E-05 
      1081    23.404  7.00E+01       298            4.24E-05 
      1082    23.412  6.00E+01       292            4.24E-05 
      1083    23.419  5.30E+02       286            4.16E-05 
      1084    23.427  6.00E+01       281            4.24E-05 
      1085    23.435  1.30E+02       275            4.24E-05 
      1086    23.443  1.00E+01       270            4.26E-05 
      1087    23.450  3.90E+02       265            4.19E-05 
      1088    23.458  6.40E+02       261            4.15E-05 
      1089    23.466  6.00E+01       256            4.26E-05 
      1090    23.474 -1.30E+02       251            4.30E-05 
      1091    23.482  3.50E+02       247            4.21E-05 
      1092    23.489  3.00E+01       243            4.27E-05 
      1093    23.497  3.10E+02       239            4.22E-05 
      1094    23.505  2.20E+02       235            4.24E-05 
      1095    23.513  4.00E+01       231            4.28E-05 
      1096    23.520  2.40E+02       228            4.25E-05 
      1097    23.528  2.90E+02       224            4.24E-05 
      1098    23.536  3.50E+02       221            4.23E-05 
      1099    23.544  2.60E+02       217            4.25E-05 
      1100    23.551  4.20E+02       214            4.22E-05 
      1101    23.559  2.50E+02       211            4.26E-05 
      1102    23.567  3.60E+02       208            4.24E-05 
      1103    23.575  1.70E+02       205            4.28E-05 
      1104    23.583 -1.20E+02       202            4.33E-05 
      1105    23.590  2.70E+02       199            4.27E-05 
      1106    23.598  8.00E+01       197            4.30E-05 
      1107    23.606  2.50E+02       194            4.28E-05 
      1108    23.614 -2.40E+02       192            4.37E-05 
      1109    23.621  1.10E+02       189            4.31E-05 
      1110    23.629  2.30E+02       187            4.29E-05 
      1111    23.637  2.60E+02       184            4.28E-05 
      1112    23.645  2.10E+02       182            4.30E-05 
      1113    23.652 -9.00E+01       180            4.36E-05 
      1114    23.660  2.30E+02       178            4.30E-05 
      1115    23.668  1.00E+02       176            4.33E-05 
      1116    23.676  3.60E+02      49.5            4.28E-05 
      1117    23.684  4.70E+02      49.6            4.27E-05 
      1118    23.691  1.70E+02      49.8            4.32E-05 
      1119    23.699  1.00E+02      49.9            4.34E-05 
      1120    23.707  5.10E+02        50            4.27E-05 
      1121    23.715  4.90E+02      50.2            4.27E-05 
      1122    23.722  3.40E+02      50.3            4.30E-05 
      1123    23.730  2.20E+02      50.4            4.33E-05 
      1124    23.738  1.50E+02      50.6            4.35E-05 
      1125    23.746 -6.00E+01      50.7            4.39E-05 
      1126    23.753  1.30E+02      50.8            4.36E-05 
      1127    23.761  3.70E+02        51            4.31E-05 
      1128    23.769  9.00E+01      51.1            4.37E-05 
      1129    23.777  2.50E+02      51.3            4.34E-05 
      1130    23.784  1.80E+02      51.4            4.36E-05 
      1131    23.792  1.30E+02      51.5            4.37E-05 
      1132    23.800  3.50E+02      51.7            4.33E-05 
      1133    23.808  3.00E+02      51.8            4.35E-05 
      1134    23.816  5.50E+02      51.9            4.30E-05 
      1135    23.823  5.10E+02      52.1            4.31E-05 
      1136    23.831  3.00E+02      52.2            4.35E-05 
      1137    23.839  3.60E+02      52.4            4.35E-05 
      1138    23.847  3.10E+02      52.5            4.36E-05 
      1139    23.854  2.00E+02      52.6            4.38E-05 
      1140    23.862  1.90E+02      52.8            4.39E-05 
      1141    23.870  1.00E+01      52.9            4.43E-05 
      1142    23.878  4.60E+02        53            4.34E-05 
      1143    23.885  3.80E+02      53.2            4.36E-05 
      1144    23.893  1.80E+02      53.3            4.40E-05 
      1145    23.901  1.40E+02      53.4            4.41E-05 
      1146    23.909  3.50E+02      53.6            4.37E-05 
      1147    23.917  7.00E+01      53.7            4.43E-05 
      1148    23.924  2.20E+02      53.9            4.40E-05 
      1149    23.932  3.50E+02        54            4.38E-05 
      1150    23.940  3.90E+02      54.1            4.38E-05 
      1151    23.948  1.70E+02      54.3            4.43E-05 
      1152    23.955  1.30E+02      54.4            4.43E-05 
      1153    23.963  1.00E+02      54.5            4.44E-05 
      1154    23.971  6.00E+01      54.7            4.46E-05 
      1155    23.979  3.00E+02      54.8            4.41E-05 
      1156    23.986 -7.00E+01        55            4.49E-05 
      1157    23.994  1.90E+02      55.1            4.44E-05 
      1158    24.002  1.30E+02      55.2            4.45E-05 
      1159    24.010  2.20E+02      55.4            4.44E-05 
      1160    24.017  3.50E+02      55.5            4.42E-05 
      1161    24.025  2.90E+02      55.6            4.43E-05 
      1162    24.033  2.70E+02      55.8            4.44E-05 
      1163    24.041  2.60E+02      55.9            4.44E-05 
      1164    24.049  1.80E+02        56            4.46E-05 
      1165    24.056  1.90E+02      56.2            4.47E-05 
      1166    24.064  4.10E+02      56.3            4.43E-05 
      1167    24.072  1.60E+02      56.5            4.48E-05 
      1168    24.080  4.50E+02      56.6            4.42E-05 
      1169    24.087  4.10E+02      56.7            4.43E-05 
      1170    24.095  1.40E+02      56.9            4.49E-05 
      1171    24.103  2.10E+02        57            4.48E-05 
      1172    24.111  9.00E+01      57.1            4.51E-05 
      1173    24.118  2.60E+02      57.3            4.48E-05 
      1174    24.126  2.80E+02      57.4            4.48E-05 
      1175    24.134  4.40E+02      57.6            4.45E-05 
      1176    24.142  1.00E+01      57.7            4.54E-05 
      1177    24.150 -3.00E+01      57.8            4.55E-05 
      1178    24.157 -8.00E+01        58            4.56E-05 
      1179    24.165  2.10E+02      58.1            4.51E-05 
      1180    24.173  1.70E+02      58.2            4.52E-05 
      1181    24.181  1.70E+02      58.4            4.52E-05 
      1182    24.188  2.90E+02      58.5            4.50E-05 
      1183    24.196 -2.10E+02      58.6            4.61E-05 
      1184    24.204  3.70E+02      58.8            4.49E-05 
      1185    24.212  4.20E+02      58.9            4.48E-05 
      1186    24.219  3.70E+02      59.1            4.50E-05 
      1187    24.227  4.20E+02      59.2            4.49E-05 
      1188    24.235  2.40E+02      59.3            4.53E-05 
      1189    24.243  2.80E+02      59.5            4.52E-05 
      1190    24.250  3.80E+02      59.6            4.51E-05 
      1191    24.258  2.70E+02      59.7            4.53E-05 
      1192    24.266  0.00E+00      59.9            4.59E-05 
      1193    24.274  2.90E+02        60            4.54E-05 
      1194    24.282  4.30E+02      60.2            4.51E-05 
      1195    24.289 -5.00E+01      60.3            4.61E-05 
      1196    24.297  6.00E+01      60.4            4.59E-05 
      1197    24.305  2.60E+02      60.6            4.55E-05 
      1198    24.313  4.10E+02      60.7            4.53E-05 
      1199    24.320  2.10E+02      60.8            4.57E-05 
      1200    24.328  3.20E+02        61            4.55E-05 
      1201    24.336  4.00E+01      61.1            4.61E-05 
      1202    24.344  9.00E+01      61.2            4.60E-05 
      1203    24.351  4.00E+02      61.4            4.54E-05 
      1204    24.359  3.40E+02      61.5            4.56E-05 
      1205    24.367  2.20E+02      61.7            4.58E-05 
      1206    24.375  2.00E+02      61.8            4.59E-05 
      1207    24.383  2.50E+02      61.9            4.58E-05 
      1208    24.390  3.80E+02      62.1            4.56E-05 
      1209    24.398  1.60E+02      62.2            4.61E-05 
      1210    24.406  2.50E+02      62.3            4.59E-05 
      1211    24.414  2.70E+02      62.5            4.59E-05 
      1212    24.421  1.90E+02      62.6            4.61E-05 
      1213    24.429  2.70E+02      62.7            4.59E-05 
      1214    24.437  5.10E+02      62.9            4.55E-05 
      1215    24.445  5.20E+02        63            4.55E-05 
      1216    24.452  3.50E+02      63.2            4.59E-05 
      1217    24.460  2.00E+01      63.3            4.66E-05 
      1218    24.468 -5.00E+01      63.4            4.68E-05 
      1219    24.476  4.60E+02      63.6            4.57E-05 
      1220    24.484  3.60E+02      63.7            4.59E-05 
      1221    24.491  1.90E+02      63.8            4.63E-05 
      1222    24.499  4.40E+02        64            4.58E-05 
      1223    24.507  2.10E+02      64.1            4.64E-05 
      1224    24.515  2.50E+02      64.2            4.63E-05 
      1225    24.522  2.90E+02      64.4            4.62E-05 
      1226    24.530  1.60E+02      64.5            4.65E-05 
      1227    24.538  1.70E+02      64.6            4.65E-05 
      1228    24.546  2.30E+02      64.8            4.64E-05 
      1229    24.553 -1.00E+01      64.9            4.70E-05 
      1230    24.561  2.10E+02      65.1            4.65E-05 
      1231    24.569  1.60E+02      65.2            4.67E-05 
      1232    24.577  4.60E+02      65.3            4.61E-05 
      1233    24.584  4.70E+02      65.5            4.60E-05 
      1234    24.592  5.30E+02      65.6            4.59E-05 
      1235    24.600  4.00E+01      65.7            4.70E-05 
      1236    24.608  2.70E+02      65.9            4.66E-05 
      1237    24.616  1.00E+02        66            4.69E-05 
      1238    24.623  2.50E+02      66.1            4.66E-05 
      1239    24.631  2.40E+02      66.3            4.67E-05 
      1240    24.639  1.90E+02      66.4            4.68E-05 
      1241    24.647  5.40E+02      66.5            4.61E-05 
      1242    24.654  3.20E+02      66.7            4.66E-05 
      1243    24.662  1.00E+02      66.8            4.71E-05 
      1244    24.670  1.80E+02        67            4.70E-05 
      1245    24.678  2.60E+02      67.1            4.68E-05 
      1246    24.685  4.00E+02      67.2            4.65E-05 
      1247    24.693  4.00E+02      67.4            4.66E-05 
      1248    24.701 -1.00E+01      67.5            4.75E-05 
      1249    24.709  1.10E+02      67.6            4.73E-05 
      1250    24.717  2.90E+02      67.8            4.69E-05 
      1251    24.724  6.30E+02      67.9            4.62E-05 
      1252    24.732  1.40E+02        68            4.73E-05 
      1253    24.740  2.50E+02      68.2            4.71E-05 
      1254    24.748  2.90E+02      68.3            4.70E-05 
      1255    24.755  3.60E+02      68.4            4.69E-05 
      1256    24.763  3.20E+02      68.6            4.70E-05 
      1257    24.771  4.10E+02      68.7            4.68E-05 
      1258    24.779  2.60E+02      68.8            4.72E-05 
      1259    24.786  2.10E+02        69            4.73E-05 
      1260    24.794  1.50E+02      69.1            4.75E-05 
      1261    24.802  3.10E+02      69.2            4.72E-05 
      1262    24.810  1.50E+02      69.4            4.75E-05 
      1263    24.817  4.10E+02      69.5            4.70E-05 
      1264    24.825  0.00E+00      69.6            4.79E-05 
      1265    24.833 -5.00E+01      69.8            4.81E-05 
      1266    24.841  2.30E+02      69.9            4.75E-05 
      1267    24.849  2.50E+02        70            4.74E-05 
      1268    24.856  1.20E+02      70.2            4.78E-05 
      1269    24.864  2.60E+02      70.3            4.75E-05 
      1270    24.872  1.20E+02      70.5            4.78E-05 
      1271    24.880  4.80E+02      70.6            4.70E-05 
      1272    24.887  2.00E+02      70.7            4.77E-05 
      1273    24.895  3.70E+02      70.9            4.74E-05 
      1274    24.903  1.20E+02        71            4.80E-05 
      1275    24.911  0.00E+00      71.1            4.83E-05 
      1276    24.918  1.30E+02      71.3            4.80E-05 
      1277    24.926  1.10E+02      71.4            4.81E-05 
      1278    24.934  3.20E+02      71.5            4.76E-05 
      1279    24.942  4.00E+02      71.7            4.75E-05 
      1280    24.950  1.40E+02      71.8            4.81E-05 
      1281    24.957  7.00E+01      71.9            4.83E-05 
      1282    24.965  1.90E+02      72.1            4.80E-05 
      1283    24.973  3.70E+02      72.2            4.76E-05 
      1284    24.981  1.20E+02      72.3            4.82E-05 
      1285    24.988 -6.00E+01      72.5            4.87E-05 
      1286    24.996  4.00E+02      72.6            4.76E-05 
      1287    25.004  3.30E+02      72.7            4.78E-05 
      1288    25.012  1.00E+02      72.9            4.84E-05 
      1289    25.019  1.70E+02        73            4.83E-05 
      1290    25.027  3.20E+02      73.1            4.80E-05 
      1291    25.035  2.20E+02      73.3            4.82E-05 
      1292    25.043  2.60E+02      73.4            4.81E-05 
      1293    25.050  5.00E+02      73.5            4.76E-05 
      1294    25.058  1.20E+02      73.7            4.85E-05 
      1295    25.066  4.50E+02      73.8            4.78E-05 
      1296    25.074  2.80E+02      73.9            4.82E-05 
      1297    25.082  3.50E+02      74.1            4.80E-05 
      1298    25.089  3.70E+02      74.2            4.81E-05 
      1299    25.097  5.00E+01      74.3            4.88E-05 
      1300    25.105  4.90E+02      74.5            4.78E-05 
      1301    25.113  1.40E+02      74.6            4.87E-05 
      1302    25.120  2.40E+02      74.7            4.85E-05 
      1303    25.128  2.80E+02      74.9            4.84E-05 
      1304    25.136  1.80E+02        75            4.87E-05 
      1305    25.144  8.00E+01      75.1            4.89E-05 
      1306    25.151 -4.00E+01      75.2            4.93E-05 
      1307    25.159  2.10E+02      75.4            4.87E-05 
      1308    25.167  1.70E+02      75.5            4.88E-05 
      1309    25.175  3.40E+02      75.6            4.84E-05 
      1310    25.183  3.30E+02      75.8            4.85E-05 
      1311    25.190  1.60E+02      75.9            4.89E-05 
      1312    25.198  1.60E+02        76            4.90E-05 
      1313    25.206  1.40E+02      76.2            4.90E-05 
      1314    25.214  4.80E+02      76.3            4.83E-05 
      1315    25.221  9.00E+01      76.4            4.92E-05 
      1316    25.229  3.80E+02      76.6            4.86E-05 
      1317    25.237  2.60E+02      76.7            4.89E-05 
      1318    25.245  1.80E+02      89.5            4.91E-05 
      1319    25.252  0.00E+00      90.4            4.96E-05 
      1320    25.260  3.10E+02      91.4            4.88E-05 
      1321    25.268  6.00E+01      92.4            4.95E-05 
      1322    25.276 -3.00E+01      93.6            4.97E-05 
      1323    25.284  3.00E+02      94.8            4.90E-05 
      1324    25.291  4.70E+02      96.2            4.86E-05 
      1325    25.299  1.20E+02      97.7            4.94E-05 
      1326    25.307  4.50E+02      99.3            4.87E-05 
      1327    25.315  2.80E+02       101            4.91E-05 
      1328    25.322  2.80E+02       103            4.91E-05 
      1329    25.330  2.90E+02       106            4.91E-05 
      1330    25.338  5.40E+02       109            4.86E-05 
      1331    25.346  1.80E+02       112            4.95E-05 
      1332    25.353  3.60E+02       117            4.91E-05 
      1333    25.361  2.60E+02       123            4.93E-05 
      1334    25.369  2.20E+02       132            4.95E-05 
      1335    25.377  1.60E+02       145            4.97E-05 
      1336    25.384  6.80E+02       164            4.84E-05 
      1337    25.392  6.40E+02       192            4.86E-05 
      1338    25.400  2.80E+02       233            4.94E-05 
      1339    25.408  2.70E+02       291            4.95E-05 
      1340    25.416  5.00E+02       371            4.90E-05 
      1341    25.423  5.40E+02       478            4.89E-05 
      1342    25.431  8.30E+02       616            4.82E-05 
      1343    25.439  8.80E+02       787            4.82E-05 
      1344    25.447  1.17E+03       990            4.75E-05 
      1345    25.454  1.41E+03  1.22E+03            4.70E-05 
      1346    25.462  1.70E+03  1.46E+03            4.64E-05 
      1347    25.470  1.67E+03  1.71E+03            4.65E-05 
      1348    25.478  1.99E+03  1.94E+03            4.59E-05 
      1349    25.485  2.11E+03  2.13E+03            4.56E-05 
      1350    25.493  2.17E+03  2.27E+03            4.55E-05 
      1351    25.501  2.22E+03  2.33E+03            4.54E-05 
      1352    25.509  2.10E+03  2.30E+03            4.57E-05 
      1353    25.517  2.04E+03  2.19E+03            4.59E-05 
      1354    25.524  2.03E+03  2.02E+03            4.59E-05 
      1355    25.532  1.57E+03  1.80E+03            4.69E-05 
      1356    25.540  1.66E+03  1.56E+03            4.68E-05 
      1357    25.548  1.38E+03  1.31E+03            4.74E-05 
      1358    25.555  1.04E+03  1.08E+03            4.82E-05 
      1359    25.563  1.06E+03       862            4.82E-05 
      1360    25.571  1.15E+03       679            4.80E-05 
      1361    25.579  7.00E+02       529            4.91E-05 
      1362    25.586  7.10E+02       411            4.91E-05 
      1363    25.594  4.70E+02       321            4.97E-05 
      1364    25.602  5.20E+02       256            4.96E-05 
      1365    25.610  5.20E+02       209            4.97E-05 
      1366    25.617  1.80E+02       177            5.05E-05 
      1367    25.625  5.50E+02       155            4.96E-05 
      1368    25.633  2.90E+02       141            5.04E-05 
      1369    25.641  4.20E+02       131            5.01E-05 
      1370    25.649  2.30E+02       124            5.06E-05 
      1371    25.656  1.40E+02       119            5.08E-05 
      1372    25.664  1.90E+02       115            5.07E-05 
      1373    25.672  1.00E+02       112            5.10E-05 
      1374    25.680  1.90E+02       110            5.08E-05 
      1375    25.687  3.30E+02       108            5.05E-05 
      1376    25.695  2.60E+02       106            5.07E-05 
      1377    25.703  4.20E+02       105            5.03E-05 
      1378    25.711  2.20E+02       104            5.08E-05 
      1379    25.718  1.80E+02       102            5.10E-05 
      1380    25.726  1.40E+02       101            5.11E-05 
      1381    25.734  4.50E+02       101            5.04E-05 
      1382    25.742  3.10E+02      99.7            5.07E-05 
      1383    25.750  4.40E+02        99            5.04E-05 
      1384    25.757  2.80E+02      85.4            5.09E-05 
      1385    25.765  1.40E+02      85.5            5.13E-05 
      1386    25.773  1.10E+02      85.6            5.14E-05 
      1387    25.781  2.50E+02      85.7            5.10E-05 
      1388    25.788  1.00E+01      85.9            5.17E-05 
      1389    25.796  4.10E+02        86            5.07E-05 
      1390    25.804  2.30E+02      86.1            5.12E-05 
      1391    25.812  2.70E+02      86.3            5.11E-05 
      1392    25.819  1.30E+02      86.4            5.15E-05 
      1393    25.827 -6.00E+01      86.5            5.21E-05 
      1394    25.835  3.70E+02      86.6            5.10E-05 
      1395    25.843  4.10E+02      86.8            5.09E-05 
      1396    25.850  3.10E+02      86.9            5.12E-05 
      1397    25.858  1.70E+02        87            5.16E-05 
      1398    25.866  4.00E+01      87.1            5.20E-05 
      1399    25.874  1.10E+02      87.3            5.18E-05 
      1400    25.882  1.60E+02      87.4            5.17E-05 
      1401    25.889  2.00E+02      87.5            5.16E-05 
      1402    25.897  4.40E+02      87.6            5.10E-05 
      1403    25.905  2.70E+02      87.8            5.15E-05 
      1404    25.913  2.40E+02      87.9            5.16E-05 
      1405    25.920  1.30E+02        88            5.19E-05 
      1406    25.928  1.60E+02      88.1            5.19E-05 
      1407    25.936  2.90E+02      88.3            5.15E-05 
      1408    25.944  2.90E+02      88.4            5.16E-05 
      1409    25.951  1.60E+02      88.5            5.19E-05 
      1410    25.959  9.00E+01      88.6            5.22E-05 
      1411    25.967  3.60E+02      88.8            5.15E-05 
      1412    25.975 -9.00E+01      88.9            5.27E-05 
      1413    25.983  2.60E+02        89            5.18E-05 
      1414    25.990 -8.00E+01      89.1            5.28E-05 
      1415    25.998  3.30E+02      89.3            5.17E-05 
      1416    26.006  5.30E+02      89.4            5.12E-05 
      1417    26.014  1.60E+02      89.5            5.22E-05 
      1418    26.021  1.50E+02      89.6            5.23E-05 
      1419    26.029  1.70E+02      89.8            5.22E-05 
      1420    26.037  1.60E+02      89.9            5.23E-05 
      1421    26.045  1.50E+02        90            5.23E-05 
      1422    26.052  1.40E+02      90.1            5.24E-05 
      1423    26.060  7.00E+01      90.3            5.26E-05 
      1424    26.068  2.60E+02      90.4            5.21E-05 
      1425    26.076  3.00E+02      90.5            5.21E-05 
      1426    26.084  3.30E+02      90.6            5.20E-05 
      1427    26.091  1.00E+02      90.8            5.27E-05 
      1428    26.099  8.00E+01      90.9            5.27E-05 
      1429    26.107  2.30E+02        91            5.24E-05 
      1430    26.115  1.10E+02      91.1            5.27E-05 
      1431    26.122  5.00E+01      91.3            5.29E-05 
      1432    26.130  2.60E+02      91.4            5.23E-05 
      1433    26.138  3.40E+02      91.5            5.22E-05 
      1434    26.146  2.20E+02      91.6            5.25E-05 
      1435    26.153  1.00E+01      91.7            5.32E-05 
      1436    26.161  7.00E+01      91.9            5.30E-05 
      1437    26.169  3.00E+01        92            5.32E-05 
      1438    26.177  1.90E+02      92.1            5.27E-05 
      1439    26.184  2.80E+02      92.2            5.25E-05 
      1440    26.192  3.00E+02      92.4            5.25E-05 
      1441    26.200  1.60E+02      92.5            5.29E-05 
      1442    26.208  2.50E+02      92.6            5.27E-05 
      1443    26.216  1.90E+02      92.7            5.29E-05 
      1444    26.223 -1.00E+02      92.8            5.38E-05 
      1445    26.231  3.40E+02        93            5.25E-05 
      1446    26.239  2.50E+02      93.1            5.28E-05 
      1447    26.247  1.60E+02      93.2            5.31E-05 
      1448    26.254  2.50E+02      93.3            5.29E-05 
      1449    26.262  2.90E+02      93.5            5.28E-05 
      1450    26.270  1.00E+02      93.6            5.34E-05 
      1451    26.278  2.30E+02      93.7            5.30E-05 
      1452    26.285  3.70E+02      93.8            5.27E-05 
      1453    26.293  2.40E+02      93.9            5.31E-05 
      1454    26.301 -5.00E+01      94.1            5.40E-05 
      1455    26.309  3.40E+02      94.2            5.29E-05 
      1456    26.317 -1.00E+01      94.3            5.39E-05 
      1457    26.324  7.00E+01      94.4            5.37E-05 
      1458    26.332  3.10E+02      94.6            5.30E-05 
      1459    26.340  1.20E+02      94.7            5.36E-05 
      1460    26.348  1.80E+02      94.8            5.34E-05 
      1461    26.355  2.90E+02      94.9            5.32E-05 
      1462    26.363  2.30E+02        95            5.34E-05 
      1463    26.371  3.40E+02      95.2            5.31E-05 
      1464    26.379  2.90E+02      95.3            5.33E-05 
      1465    26.386  2.30E+02      95.4            5.35E-05 
      1466    26.394  1.20E+02      95.5            5.38E-05 
      1467    26.402  3.20E+02      95.6            5.33E-05 
      1468    26.410  2.70E+02      95.8            5.34E-05 
      1469    26.417  9.00E+01      95.9            5.40E-05 
      1470    26.425 -3.00E+01        96            5.44E-05 
      1471    26.433  2.80E+02      96.1            5.35E-05 
      1472    26.441  2.30E+02      96.2            5.37E-05 
      1473    26.449 -2.00E+01      96.4            5.45E-05 
      1474    26.456  3.00E+01      96.5            5.44E-05 
      1475    26.464  1.80E+02      96.6            5.39E-05 
      1476    26.472  1.60E+02      96.7            5.40E-05 
      1477    26.480  2.50E+02      96.8            5.38E-05 
      1478    26.487  2.10E+02        97            5.39E-05 
      1479    26.495  1.90E+02      97.1            5.40E-05 
      1480    26.503  5.00E+01      97.2            5.45E-05 
      1481    26.511  2.90E+02      97.3            5.38E-05 
      1482    26.518  4.30E+02      97.4            5.35E-05 
      1483    26.526  2.00E+02      97.5            5.41E-05 
      1484    26.534  1.90E+02      97.7            5.42E-05 
      1485    26.542  2.20E+02      97.8            5.41E-05 
      1486    26.550  2.10E+02      97.9            5.42E-05 
      1487    26.557  4.00E+02        98            5.37E-05 
      1488    26.565  4.00E+02      98.1            5.37E-05 
      1489    26.573  1.10E+02      98.3            5.46E-05 
      1490    26.581  2.60E+02      98.4            5.42E-05 
      1491    26.588  2.30E+02      98.5            5.43E-05 
      1492    26.596  1.50E+02      98.6            5.46E-05 
      1493    26.604  2.80E+02      98.7            5.42E-05 
      1494    26.612  8.00E+01      98.9            5.49E-05 
      1495    26.619  1.40E+02        99            5.47E-05 
      1496    26.627  3.50E+02      99.1            5.41E-05 
      1497    26.635  1.10E+02      99.2            5.48E-05 
      1498    26.643  1.50E+02      99.3            5.48E-05 
      1499    26.651  4.00E+01      99.4            5.51E-05 
      1500    26.658  2.60E+02      99.6            5.45E-05 
      1501    26.666  2.50E+02      99.7            5.46E-05 
      1502    26.674  3.80E+02      99.8            5.42E-05 
      1503    26.682  1.20E+02      99.9            5.50E-05 
      1504    26.689  2.20E+02       100            5.48E-05 
      1505    26.697  1.80E+02       100            5.49E-05 
      1506    26.705  1.20E+02       100            5.51E-05 
      1507    26.713  2.30E+02       100            5.48E-05 
      1508    26.720  1.40E+02       100            5.51E-05 
      1509    26.728  1.80E+02       101            5.50E-05 
      1510    26.736  3.40E+02       101            5.46E-05 
      1511    26.744  3.00E+02       101            5.48E-05 
      1512    26.751 -1.50E+02       101            5.62E-05 
      1513    26.759  4.70E+02       101            5.43E-05 
      1514    26.767  2.10E+02       101            5.51E-05 
      1515    26.775  9.00E+01       101            5.55E-05 
      1516    26.783  1.10E+02       101            5.55E-05 
      1517    26.790  3.30E+02       102            5.49E-05 
      1518    26.798 -2.00E+01       102            5.60E-05 
      1519    26.806  1.00E+02       102            5.56E-05 
      1520    26.814  2.40E+02       102            5.52E-05 
      1521    26.821  3.60E+02       102            5.49E-05 
      1522    26.829  1.40E+02       102            5.56E-05 
      1523    26.837  1.00E+02       102            5.58E-05 
      1524    26.845  2.40E+02       102            5.54E-05 
      1525    26.852 -5.00E+01       102            5.63E-05 
      1526    26.860  2.90E+02       103            5.53E-05 
      1527    26.868  2.40E+02       103            5.55E-05 
      1528    26.876  4.00E+02       103            5.50E-05 
      1529    26.884  7.00E+01       103            5.61E-05 
      1530    26.891  2.00E+01       103            5.63E-05 
      1531    26.899  1.50E+02       103            5.59E-05 
      1532    26.907  1.40E+02       103            5.60E-05 
      1533    26.915 -3.00E+01       103            5.65E-05 
      1534    26.922  3.20E+02       103            5.55E-05 
      1535    26.930  1.80E+02       104            5.59E-05 
      1536    26.938  9.00E+01       104            5.62E-05 
      1537    26.946  2.60E+02       104            5.57E-05 
      1538    26.953  1.40E+02       104            5.61E-05 
      1539    26.961  1.30E+02       104            5.62E-05 
      1540    26.969  3.50E+02       104            5.56E-05 
      1541    26.977  6.00E+01       104            5.65E-05 
      1542    26.984  2.40E+02       104            5.60E-05 
      1543    26.992  1.20E+02       105            5.64E-05 
      1544    27.000  1.00E+01       105            5.68E-05 
      1545    27.008  2.20E+02       105            5.62E-05 
      1546    27.016  3.70E+02       105            5.57E-05 
      1547    27.023  2.70E+02       105            5.60E-05 
      1548    27.031  2.80E+02       105            5.61E-05 
      1549    27.039  1.40E+02       105            5.66E-05 
      1550    27.047  1.50E+02       105            5.66E-05 
      1551    27.054  2.60E+02       105            5.63E-05 
      1552    27.062  3.80E+02       106            5.59E-05 
      1553    27.070  5.00E+01       106            5.70E-05 
      1554    27.078  2.00E+02       106            5.65E-05 
      1555    27.085  5.20E+02       106            5.56E-05 
      1556    27.093 -1.50E+02       106            5.77E-05 
      1557    27.101  3.10E+02       106            5.63E-05 
      1558    27.109  9.00E+01       106            5.71E-05 
      1559    27.117  8.00E+01       106            5.71E-05 
      1560    27.124  2.20E+02       106            5.67E-05 
      1561    27.132  1.30E+02       107            5.70E-05 
      1562    27.140  2.20E+02       107            5.67E-05 
      1563    27.148  2.40E+02       107            5.67E-05 
      1564    27.155  1.60E+02       107            5.70E-05 
      1565    27.163  2.40E+02       107            5.68E-05 
      1566    27.171  2.20E+02       107            5.68E-05 
      1567    27.179  1.50E+02       107            5.71E-05 
      1568    27.186  1.40E+02       107            5.71E-05 
      1569    27.194  1.90E+02       107            5.70E-05 
      1570    27.202  7.00E+01       108            5.74E-05 
      1571    27.210  4.30E+02       108            5.63E-05 
      1572    27.217  1.30E+02       108            5.73E-05 
      1573    27.225  1.10E+02       108            5.74E-05 
      1574    27.233  1.10E+02       108            5.74E-05 
      1575    27.241  2.10E+02       108            5.72E-05 
      1576    27.249  1.90E+02       108            5.73E-05 
      1577    27.256 -1.70E+02       108            5.85E-05 
      1578    27.264  1.70E+02       108            5.73E-05 
      1579    27.272  3.50E+02       109            5.68E-05 
      1580    27.280  1.60E+02       109            5.74E-05 
      1581    27.287  1.90E+02       109            5.74E-05 
      1582    27.295  9.00E+01       109            5.77E-05 
      1583    27.303  2.10E+02       109            5.74E-05 
      1584    27.311  2.10E+02       109            5.74E-05 
      1585    27.318  1.20E+02       109            5.77E-05 
      1586    27.326  1.80E+02       109            5.75E-05 
      1587    27.334  4.20E+02       109            5.68E-05 
      1588    27.342  3.40E+02       109            5.71E-05 
      1589    27.350  9.00E+01       110            5.79E-05 
      1590    27.357  2.50E+02       110            5.74E-05 
      1591    27.365  2.60E+02       110            5.74E-05 
      1592    27.373  3.10E+02       110            5.73E-05 
      1593    27.381  2.40E+02       110            5.76E-05 
      1594    27.388  2.80E+02       110            5.75E-05 
      1595    27.396  1.60E+02       110            5.79E-05 
      1596    27.404  1.80E+02       110            5.78E-05 
      1597    27.412  1.20E+02       110            5.81E-05 
      1598    27.419  3.20E+02       111            5.74E-05 
      1599    27.427  1.20E+02       111            5.82E-05 
      1600    27.435  2.60E+02       111            5.77E-05 
      1601    27.443  4.60E+02       111            5.71E-05 
      1602    27.451  1.60E+02       111            5.81E-05 
      1603    27.458  1.60E+02       111            5.81E-05 
      1604    27.466  7.00E+01       111            5.85E-05 
      1605    27.474  1.20E+02       111            5.83E-05 
      1606    27.482  9.00E+01       111            5.85E-05 
      1607    27.489  3.00E+02       112            5.78E-05 
      1608    27.497  1.70E+02       112            5.82E-05 
      1609    27.505  2.40E+02       112            5.80E-05 
      1610    27.513  2.10E+02       112            5.82E-05 
      1611    27.520  1.80E+02       112            5.83E-05 
      1612    27.528  2.00E+02       112            5.83E-05 
      1613    27.536  1.60E+02       112            5.84E-05 
      1614    27.544  2.00E+02       112            5.83E-05 
      1615    27.551  2.20E+02       112            5.83E-05 
      1616    27.559  1.80E+02       112            5.84E-05 
      1617    27.567  2.30E+02       113            5.83E-05 
      1618    27.575  2.70E+02       113            5.82E-05 
      1619    27.583  2.70E+02       113            5.82E-05 
      1620    27.590  4.00E+01       113            5.91E-05 
      1621    27.598 -1.00E+01       113            5.93E-05 
      1622    27.606  2.20E+02       113            5.85E-05 
      1623    27.614  9.00E+01       113            5.89E-05 
      1624    27.621  1.20E+02       113            5.89E-05 
      1625    27.629  2.40E+02       113            5.85E-05 
      1626    27.637  2.50E+02       114            5.85E-05 
      1627    27.645  1.60E+02       114            5.89E-05 
      1628    27.652  3.00E+02       114            5.84E-05 
      1629    27.660  3.60E+02       114            5.82E-05 
      1630    27.668  1.60E+02       114            5.90E-05 
      1631    27.676 -1.00E+01       114            5.96E-05 
      1632    27.684  1.90E+02       114            5.89E-05 
      1633    27.691  2.60E+02       114            5.87E-05 
      1634    27.699  1.50E+02       114            5.91E-05 
      1635    27.707  2.80E+02       114            5.87E-05 
      1636    27.715  3.00E+02       115            5.87E-05 
      1637    27.722  1.00E+01       115            5.97E-05 
      1638    27.730  2.60E+02       115            5.88E-05 
      1639    27.738  1.70E+02       115            5.92E-05 
      1640    27.746  2.00E+02       115            5.91E-05 
      1641    27.753 -5.00E+01       115            6.00E-05 
      1642    27.761  2.10E+02       115            5.92E-05 
      1643    27.769  4.60E+02       115            5.83E-05 
      1644    27.777  1.50E+02       115            5.94E-05 
      1645    27.784  3.80E+02       116            5.86E-05 
      1646    27.792  2.40E+02       116            5.92E-05 
      1647    27.800  1.90E+02       116            5.94E-05 
      1648    27.808  1.30E+02       116            5.96E-05 
      1649    27.816  2.70E+02       116            5.92E-05 
      1650    27.823  2.40E+02       116            5.93E-05 
      1651    27.831  1.50E+02       116            5.96E-05 
      1652    27.839  1.60E+02       116            5.96E-05 
      1653    27.847  4.00E+02       116            5.88E-05 
      1654    27.854  1.90E+02       116            5.96E-05 
      1655    27.862  3.20E+02       117            5.92E-05 
      1656    27.870  3.10E+02       117            5.93E-05 
      1657    27.878  6.00E+01       117            6.02E-05 
      1658    27.885 -3.00E+01       117            6.05E-05 
      1659    27.893  6.00E+01       117            6.02E-05 
      1660    27.901  8.00E+01       117            6.02E-05 
      1661    27.909  1.20E+02       117            6.01E-05 
      1662    27.917  7.00E+01       117            6.03E-05 
      1663    27.924  2.70E+02       117            5.96E-05 
      1664    27.932  3.40E+02       117            5.94E-05 
      1665    27.940  2.00E+02       118            5.99E-05 
      1666    27.948  2.10E+02       118            5.99E-05 
      1667    27.955  4.00E+02       118            5.93E-05 
      1668    27.963  1.10E+02       118            6.03E-05 
      1669    27.971  1.50E+02       118            6.02E-05 
      1670    27.979  1.70E+02       118            6.02E-05 
      1671    27.986  6.00E+01       118            6.06E-05 
      1672    27.994  1.80E+02       118            6.02E-05 
      1673    28.002  2.50E+02       118            6.00E-05 
      1674    28.010 -6.00E+01       118            6.12E-05 
      1675    28.017  4.20E+02       119            5.94E-05 
      1676    28.025  4.20E+02       119            5.95E-05 
      1677    28.033  1.40E+02       119            6.06E-05 
      1678    28.041  2.10E+02       119            6.03E-05 
      1679    28.049  1.30E+02       119            6.06E-05 
      1680    28.056  2.20E+02       119            6.03E-05 
      1681    28.064  2.40E+02       119            6.03E-05 
      1682    28.072 -5.00E+01       119            6.14E-05 
      1683    28.080  3.50E+02       119            6.00E-05 
      1684    28.087  1.70E+02       119            6.07E-05 
      1685    28.095  6.00E+01       120            6.11E-05 
      1686    28.103  1.70E+02       120            6.07E-05 
      1687    28.111 -1.00E+01       120            6.14E-05 
      1688    28.118  3.50E+02       120            6.01E-05 
      1689    28.126  2.00E+02       120            6.07E-05 
      1690    28.134  4.00E+01       120            6.13E-05 
      1691    28.142 -7.00E+01       120            6.18E-05 
      1692    28.150  1.80E+02       120            6.09E-05 
      1693    28.157  3.00E+02       120            6.05E-05 
      1694    28.165  1.80E+02       120            6.09E-05 
      1695    28.173  8.00E+01       121            6.14E-05 
      1696    28.181  1.40E+02       121            6.11E-05 
      1697    28.188  4.00E+01       121            6.16E-05 
      1698    28.196  2.40E+02       121            6.08E-05 
      1699    28.204  1.20E+02       121            6.13E-05 
      1700    28.212  1.20E+02       121            6.14E-05 
      1701    28.219  1.10E+02       121            6.14E-05 
      1702    28.227  1.70E+02       121            6.12E-05 
      1703    28.235  2.00E+02       121            6.12E-05 
      1704    28.243  1.40E+02       121            6.14E-05 
      1705    28.251  1.40E+02       122            6.15E-05 
      1706    28.258  1.40E+02       122            6.14E-05 
      1707    28.266  4.50E+02       122            6.04E-05 
      1708    28.274  2.60E+02       122            6.11E-05 
      1709    28.282  3.10E+02       122            6.09E-05 
      1710    28.289  2.90E+02       122            6.10E-05 
      1711    28.297  2.20E+02       122            6.13E-05 
      1712    28.305  3.00E+01       122            6.21E-05 
      1713    28.313 -5.00E+01       122            6.25E-05 
      1714    28.320  1.60E+02       122            6.17E-05 
      1715    28.328  3.60E+02       122            6.09E-05 
      1716    28.336  4.20E+02       123            6.07E-05 
      1717    28.344  2.80E+02       123            6.13E-05 
      1718    28.351  2.40E+02       123            6.15E-05 
      1719    28.359  2.70E+02       123            6.14E-05 
      1720    28.367  2.20E+02       123            6.17E-05 
      1721    28.375  1.40E+02       123            6.20E-05 
      1722    28.383  2.20E+02       123            6.17E-05 
      1723    28.390  4.00E+02       123            6.11E-05 
      1724    28.398  3.40E+02       123            6.13E-05 
      1725    28.406  1.20E+02       123            6.22E-05 
      1726    28.414  7.00E+01       124            6.24E-05 
      1727    28.421 -7.00E+01       124            6.30E-05 
      1728    28.429  2.00E+02       124            6.20E-05 
      1729    28.437  2.40E+02       124            6.19E-05 
      1730    28.445  1.40E+02       124            6.23E-05 
      1731    28.452  6.00E+01       124            6.27E-05 
      1732    28.460  9.00E+01       124            6.26E-05 
      1733    28.468  8.00E+01       124            6.27E-05 
      1734    28.476  2.70E+02       124            6.19E-05 
      1735    28.484  2.20E+02       124            6.22E-05 
      1736    28.491  1.30E+02       124            6.25E-05 
      1737    28.499  1.60E+02       125            6.25E-05 
      1738    28.507  3.30E+02       125            6.19E-05 
      1739    28.515  1.70E+02       125            6.25E-05 
      1740    28.522  1.90E+02       125            6.25E-05 
      1741    28.530  6.00E+01       160            6.30E-05 
      1742    28.538 -2.00E+01       161            6.34E-05 
      1743    28.546  3.30E+02       161            6.20E-05 
      1744    28.553  4.00E+01       162            6.32E-05 
      1745    28.561  3.50E+02       163            6.20E-05 
      1746    28.569 -5.00E+01       164            6.36E-05 
      1747    28.577  1.10E+02       164            6.30E-05 
      1748    28.584  1.60E+02       165            6.29E-05 
      1749    28.592  1.10E+02       166            6.31E-05 
      1750    28.600  9.00E+01       167            6.32E-05 
      1751    28.608  1.20E+02       168            6.31E-05 
      1752    28.616  2.60E+02       168            6.26E-05 
      1753    28.623  2.60E+02       169            6.26E-05 
      1754    28.631  0.00E+00       170            6.37E-05 
      1755    28.639  1.50E+02       171            6.31E-05 
      1756    28.647  3.00E+01       172            6.36E-05 
      1757    28.654  1.40E+02       173            6.33E-05 
      1758    28.662 -1.60E+02       174            6.45E-05 
      1759    28.670  1.90E+02       175            6.31E-05 
      1760    28.678  2.90E+02       176            6.28E-05 
      1761    28.685  2.60E+02       178            6.30E-05 
      1762    28.693  0.00E+00       179            6.40E-05 
      1763    28.701  7.00E+01       180            6.37E-05 
      1764    28.709  2.20E+02       181            6.32E-05 
      1765    28.717  2.60E+02       182            6.31E-05 
      1766    28.724  3.40E+02       184            6.28E-05 
      1767    28.732  5.00E+01       185            6.40E-05 
      1768    28.740  1.30E+02       186            6.37E-05 
      1769    28.748 -2.00E+01       188            6.43E-05 
      1770    28.755  2.90E+02       189            6.32E-05 
      1771    28.763  1.80E+02       191            6.36E-05 
      1772    28.771  1.00E+01       192            6.43E-05 
      1773    28.779  4.90E+02       194            6.24E-05 
      1774    28.786  1.00E+01       196            6.44E-05 
      1775    28.794  1.60E+02       197            6.38E-05 
      1776    28.802 -4.00E+01       199            6.47E-05 
      1777    28.810  8.00E+01       201            6.42E-05 
      1778    28.817  4.40E+02       203            6.28E-05 
      1779    28.825  1.30E+02       205            6.41E-05 
      1780    28.833  1.60E+02       207            6.40E-05 
      1781    28.841  5.00E+01       209            6.45E-05 
      1782    28.849  2.60E+02       211            6.36E-05 
      1783    28.856  1.70E+02       213            6.41E-05 
      1784    28.864  2.40E+02       216            6.38E-05 
      1785    28.872  3.50E+02       218            6.34E-05 
      1786    28.880  1.40E+02       221            6.43E-05 
      1787    28.887  3.40E+02       223            6.36E-05 
      1788    28.895  1.30E+02       226            6.44E-05 
      1789    28.903  4.20E+02       229            6.33E-05 
      1790    28.911  3.20E+02       232            6.37E-05 
      1791    28.918  2.10E+02       235            6.42E-05 
      1792    28.926  3.30E+02       239            6.37E-05 
      1793    28.934 -2.00E+01       242            6.52E-05 
      1794    28.942  2.10E+02       246            6.43E-05 
      1795    28.950  1.90E+02       249            6.44E-05 
      1796    28.957  2.80E+02       253            6.41E-05 
      1797    28.965  3.10E+02       257            6.40E-05 
      1798    28.973  2.10E+02       262            6.45E-05 
      1799    28.981  2.90E+02       266            6.41E-05 
      1800    28.988  5.20E+02       271            6.33E-05 
      1801    28.996  4.70E+02       276            6.35E-05 
      1802    29.004  2.30E+02       281            6.45E-05 
      1803    29.012  5.00E+01       287            6.53E-05 
      1804    29.019  3.00E+01       293            6.55E-05 
      1805    29.027  3.00E+02       299            6.44E-05 
      1806    29.035  2.40E+02       306            6.46E-05 
      1807    29.043  3.00E+02       312            6.45E-05 
      1808    29.051  1.40E+02       320            6.52E-05 
      1809    29.058  3.70E+02       327            6.42E-05 
      1810    29.066  4.40E+02       336            6.39E-05 
      1811    29.074  4.00E+02       344            6.41E-05 
      1812    29.082  3.00E+02       354            6.46E-05 
      1813    29.089  3.30E+02       364            6.45E-05 
      1814    29.097  4.00E+02       374            6.43E-05 
      1815    29.105  3.90E+02       385            6.43E-05 
      1816    29.113  4.10E+02       397            6.43E-05 
      1817    29.120  3.60E+02       410            6.45E-05 
      1818    29.128  4.30E+02       424            6.43E-05 
      1819    29.136  2.10E+02       439            6.52E-05 
      1820    29.144  6.00E+02       455            6.37E-05 
      1821    29.151  3.70E+02       472            6.47E-05 
      1822    29.159  1.00E+02       491            6.58E-05 
      1823    29.167  5.60E+02       511            6.39E-05 
      1824    29.175  3.10E+02       533            6.50E-05 
      1825    29.183  5.90E+02       557            6.39E-05 
      1826    29.190  3.70E+02       583            6.48E-05 
      1827    29.198  5.20E+02       612            6.42E-05 
      1828    29.206  4.30E+02       643            6.46E-05 
      1829    29.214  6.80E+02       677            6.37E-05 
      1830    29.221  5.50E+02       715            6.42E-05 
      1831    29.229  4.80E+02       757            6.46E-05 
      1832    29.237  7.30E+02       804            6.36E-05 
      1833    29.245  7.00E+02       855            6.37E-05 
      1834    29.252  6.30E+02       913            6.41E-05 
      1835    29.260  4.70E+02       979            6.48E-05 
      1836    29.268  9.00E+02  1.05E+03            6.31E-05 
      1837    29.276  8.20E+02  1.14E+03            6.34E-05 
      1838    29.284  8.90E+02  1.24E+03            6.31E-05 
      1839    29.291  1.13E+03  1.36E+03            6.22E-05 
      1840    29.299  1.03E+03  1.51E+03            6.27E-05 
      1841    29.307  1.05E+03  1.70E+03            6.26E-05 
      1842    29.315  1.48E+03  1.95E+03            6.10E-05 
      1843    29.322  1.83E+03  2.29E+03            5.98E-05 
      1844    29.330  2.30E+03  2.76E+03            5.82E-05 
      1845    29.338  2.84E+03  3.42E+03            5.64E-05 
      1846    29.346  3.60E+03  4.33E+03            5.41E-05 
      1847    29.353  4.82E+03  5.57E+03            5.08E-05 
      1848    29.361  6.27E+03  7.23E+03            4.73E-05 
      1849    29.369  8.47E+03  9.37E+03            4.29E-05 
      1850    29.377  1.16E+04  1.21E+04            3.78E-05 
      1851    29.384  1.49E+04  1.53E+04            3.37E-05 
      1852    29.392  1.97E+04  1.90E+04            2.90E-05 
      1853    29.400  2.47E+04  2.30E+04            2.53E-05 
      1854    29.408  2.93E+04  2.73E+04            2.27E-05 
      1855    29.416  3.44E+04  3.13E+04            2.03E-05 
      1856    29.423  3.80E+04  3.47E+04            1.90E-05 
      1857    29.431  4.00E+04  3.71E+04            1.83E-05 
      1858    29.439  4.02E+04  3.81E+04            1.82E-05 
      1859    29.447  3.90E+04  3.74E+04            1.86E-05 
      1860    29.454  3.64E+04  3.52E+04            1.95E-05 
      1861    29.462  3.26E+04  3.18E+04            2.11E-05 
      1862    29.470  2.80E+04  2.79E+04            2.34E-05 
      1863    29.478  2.41E+04  2.37E+04            2.58E-05 
      1864    29.485  2.00E+04  1.96E+04            2.88E-05 
      1865    29.493  1.68E+04  1.58E+04            3.18E-05 
      1866    29.501  1.36E+04  1.25E+04            3.54E-05 
      1867    29.509  1.13E+04  9.74E+03            3.85E-05 
      1868    29.517  9.34E+03  7.51E+03            4.16E-05 
      1869    29.524  7.86E+03  5.79E+03            4.44E-05 
      1870    29.532  6.47E+03  4.49E+03            4.73E-05 
      1871    29.540  5.59E+03  3.54E+03            4.94E-05 
      1872    29.548  4.31E+03  2.85E+03            5.28E-05 
      1873    29.555  3.84E+03  2.35E+03            5.42E-05 
      1874    29.563  3.25E+03  1.99E+03            5.59E-05 
      1875    29.571  2.70E+03  1.73E+03            5.78E-05 
      1876    29.579  2.25E+03  1.54E+03            5.93E-05 
      1877    29.586  2.12E+03  1.38E+03            5.98E-05 
      1878    29.594  1.82E+03  1.26E+03            6.09E-05 
      1879    29.602  1.75E+03  1.16E+03            6.12E-05 
      1880    29.610  1.54E+03  1.07E+03            6.21E-05 
      1881    29.617  1.51E+03       993            6.22E-05 
      1882    29.625  1.10E+03       926            6.39E-05 
      1883    29.633  9.80E+02       867            6.44E-05 
      1884    29.641  7.20E+02       815            6.55E-05 
      1885    29.649  7.10E+02       768            6.56E-05 
      1886    29.656  6.00E+02       726            6.62E-05 
      1887    29.664  9.40E+02       687            6.47E-05 
      1888    29.672  6.90E+02       653            6.58E-05 
      1889    29.680  7.20E+02       621            6.57E-05 
      1890    29.687  6.60E+02       593            6.61E-05 
      1891    29.695  4.40E+02       566            6.71E-05 
      1892    29.703  6.30E+02       542            6.63E-05 
      1893    29.711  7.60E+02       520            6.57E-05 
      1894    29.718  3.70E+02       500            6.75E-05 
      1895    29.726  4.90E+02       481            6.70E-05 
      1896    29.734  3.50E+02       464            6.77E-05 
      1897    29.742  3.50E+02       448            6.77E-05 
      1898    29.750  6.50E+02       433            6.64E-05 
      1899    29.757  6.30E+02       419            6.65E-05 
      1900    29.765  5.30E+02       406            6.70E-05 
      1901    29.773  3.50E+02       394            6.79E-05 
      1902    29.781  5.40E+02       383            6.70E-05 
      1903    29.788  2.00E+02       372            6.86E-05 
      1904    29.796  3.30E+02       362            6.81E-05 
      1905    29.804  5.30E+02       353            6.72E-05 
      1906    29.812  4.40E+02       345            6.76E-05 
      1907    29.819  3.80E+02       337            6.80E-05 
      1908    29.827  2.40E+02       329            6.87E-05 
      1909    29.835  4.30E+02       322            6.79E-05 
      1910    29.843  3.10E+02       315            6.84E-05 
      1911    29.851  6.20E+02       308            6.71E-05 
      1912    29.858  2.20E+02       302            6.89E-05 
      1913    29.866  1.10E+02       297            6.95E-05 
      1914    29.874  5.50E+02       291            6.75E-05 
      1915    29.882  2.90E+02       286            6.87E-05 
      1916    29.889  3.30E+02       281            6.86E-05 
      1917    29.897  3.80E+02       276            6.84E-05 
      1918    29.905  1.70E+02       272            6.95E-05 
      1919    29.913  3.60E+02       268            6.86E-05 
      1920    29.920  5.30E+02       264            6.78E-05 
      1921    29.928  5.50E+02       260            6.77E-05 
      1922    29.936  5.20E+02       256            6.79E-05 
      1923    29.944  2.50E+02       253            6.92E-05 
      1924    29.951  3.50E+02       250            6.88E-05 
      1925    29.959  5.30E+02       247            6.81E-05 
      1926    29.967  1.20E+02       244            7.01E-05 
      1927    29.975  5.30E+02       241            6.81E-05 
      1928    29.983  3.30E+02       238            6.91E-05 
      1929    29.990  4.50E+02       235            6.86E-05 
      1930    29.998  4.30E+02       233            6.87E-05 
      1931    30.006  2.40E+02       230            6.96E-05 
      1932    30.014  4.70E+02       228            6.86E-05 
      1933    30.021  4.20E+02       226            6.89E-05 
      1934    30.029  4.60E+02       224            6.88E-05 
      1935    30.037  2.20E+02       222            6.99E-05 
      1936    30.045  2.30E+02       220            6.99E-05 
      1937    30.052  3.70E+02       218            6.93E-05 
      1938    30.060  3.70E+02       216            6.94E-05 
      1939    30.068  1.80E+02       214            7.03E-05 
      1940    30.076  4.80E+02       212            6.89E-05 
      1941    30.084  2.90E+02       211            6.99E-05 
      1942    30.091  4.40E+02       209            6.92E-05 
      1943    30.099  3.60E+02       208            6.96E-05 
      1944    30.107  2.90E+02       206            7.00E-05 
      1945    30.115  2.70E+02       205            7.01E-05 
      1946    30.122  4.40E+02       204            6.93E-05 
      1947    30.130  2.90E+02       202            7.01E-05 
      1948    30.138  3.30E+02       201            7.00E-05 
      1949    30.146  1.20E+02       200            7.10E-05 
      1950    30.153  4.20E+02       199            6.96E-05 
      1951    30.161  5.50E+02       197            6.90E-05 
      1952    30.169  4.30E+02       196            6.96E-05 
      1953    30.177  5.00E+01       195            7.16E-05 
      1954    30.184  3.40E+02       194            7.02E-05 
      1955    30.192  3.50E+02       193            7.02E-05 
      1956    30.200  4.20E+02       192            6.99E-05 
      1957    30.208  2.70E+02       191            7.07E-05 
      1958    30.216  4.20E+02       190            6.99E-05 
      1959    30.223  4.10E+02       190            7.00E-05 
      1960    30.231  4.60E+02       189            6.99E-05 
      1961    30.239  2.60E+02       188            7.09E-05 
      1962    30.247  4.50E+02       187            7.00E-05 
      1963    30.254  1.10E+02       186            7.17E-05 
      1964    30.262  3.30E+02       186            7.07E-05 
      1965    30.270  4.30E+02       185            7.02E-05 
      1966    30.278  6.00E+01       184            7.21E-05 
      1967    30.285  3.10E+02       184            7.09E-05 
      1968    30.293  2.90E+02       183            7.10E-05 
      1969    30.301  3.50E+02       182            7.07E-05 
      1970    30.309  3.30E+02       182            7.08E-05 
      1971    30.317  9.00E+01       181            7.21E-05 
      1972    30.324  5.80E+02       180            6.97E-05 
      1973    30.332  3.60E+02       180            7.08E-05 
      1974    30.340  3.60E+02       179            7.08E-05 
      1975    30.348  3.10E+02       144            7.11E-05 
      1976    30.355  2.90E+02       144            7.12E-05 
      1977    30.363  2.90E+02       144            7.13E-05 
      1978    30.371  3.90E+02       144            7.08E-05 
      1979    30.379  2.80E+02       144            7.14E-05 
      1980    30.386  4.10E+02       144            7.07E-05 
      1981    30.394  1.20E+02       144            7.23E-05 
      1982    30.402  5.40E+02       144            7.02E-05 
      1983    30.410  2.90E+02       144            7.14E-05 
      1984    30.417  2.50E+02       144            7.17E-05 
      1985    30.425  3.40E+02       144            7.12E-05 
      1986    30.433  2.00E+02       144            7.20E-05 
      1987    30.441  3.10E+02       145            7.15E-05 
      1988    30.449  3.60E+02       145            7.12E-05 
      1989    30.456  2.60E+02       145            7.18E-05 
      1990    30.464  1.30E+02       145            7.25E-05 
      1991    30.472  3.30E+02       145            7.15E-05 
      1992    30.480  1.10E+02       145            7.26E-05 
      1993    30.487  1.80E+02       145            7.23E-05 
      1994    30.495  3.00E+02       145            7.17E-05 
      1995    30.503  2.80E+02       145            7.18E-05 
      1996    30.511  2.30E+02       145            7.22E-05 
      1997    30.518  2.40E+02       145            7.21E-05 
      1998    30.526  2.30E+02       145            7.22E-05 
      1999    30.534  2.00E+02       145            7.24E-05 
      2000    30.542  3.00E+01       145            7.33E-05 
      2001    30.550  5.40E+02       145            7.07E-05 
      2002    30.557  1.80E+02       145            7.26E-05 
      2003    30.565  9.00E+01       146            7.31E-05 
      2004    30.573  2.80E+02       146            7.22E-05 
      2005    30.581  2.30E+02       146            7.24E-05 
      2006    30.588  3.20E+02       146            7.20E-05 
      2007    30.596  1.60E+02       146            7.28E-05 
      2008    30.604  3.10E+02       146            7.21E-05 
      2009    30.612  2.70E+02       146            7.24E-05 
      2010    30.619  4.00E+01       146            7.36E-05 
      2011    30.627  2.70E+02       146            7.24E-05 
      2012    30.635  2.70E+02       146            7.24E-05 
      2013    30.643  4.50E+02       146            7.15E-05 
      2014    30.651  1.30E+02       146            7.32E-05 
      2015    30.658  3.60E+02       146            7.20E-05 
      2016    30.666  4.80E+02       146            7.15E-05 
      2017    30.674  2.40E+02       146            7.27E-05 
      2018    30.682  2.80E+02       147            7.26E-05 
      2019    30.689  2.20E+02       147            7.29E-05 
      2020    30.697  2.20E+02       147            7.29E-05 
      2021    30.705  2.80E+02       147            7.27E-05 
      2022    30.713  4.50E+02       147            7.18E-05 
      2023    30.720  2.10E+02       147            7.31E-05 
      2024    30.728  1.80E+02       147            7.33E-05 
      2025    30.736  2.30E+02       147            7.30E-05 
      2026    30.744  1.50E+02       147            7.35E-05 
      2027    30.751  0.00E+00       147            7.43E-05 
      2028    30.759  6.00E+01       147            7.41E-05 
      2029    30.767  9.00E+01       147            7.40E-05 
      2030    30.775  5.00E+02       147            7.18E-05 
      2031    30.783  2.00E+02       147            7.34E-05 
      2032    30.790  4.50E+02       147            7.21E-05 
      2033    30.798  1.30E+02       147            7.38E-05 
      2034    30.806  4.30E+02       148            7.23E-05 
      2035    30.814  1.10E+02       148            7.40E-05 
      2036    30.821  2.70E+02       148            7.32E-05 
      2037    30.829  1.90E+02       148            7.36E-05 
      2038    30.837  2.00E+01       148            7.46E-05 
      2039    30.845  3.30E+02       148            7.30E-05 
      2040    30.852  2.70E+02       148            7.33E-05 
      2041    30.860  9.00E+01       148            7.43E-05 
      2042    30.868  1.40E+02       148            7.41E-05 
      2043    30.876  4.00E+01       148            7.47E-05 
      2044    30.884  3.20E+02       148            7.32E-05 
      2045    30.891  2.30E+02       148            7.37E-05 
      2046    30.899  4.00E+02       148            7.28E-05 
      2047    30.907  2.30E+02       148            7.38E-05 
      2048    30.915  1.30E+02       148            7.44E-05 
      2049    30.922  2.70E+02       148            7.36E-05 
      2050    30.930  2.40E+02       149            7.38E-05 
      2051    30.938  1.60E+02       149            7.43E-05 
      2052    30.946  1.00E+01       149            7.51E-05 
      2053    30.953  1.50E+02       149            7.44E-05 
      2054    30.961  3.00E+01       149            7.51E-05 
      2055    30.969  4.00E+01       149            7.51E-05 
      2056    30.977  3.60E+02       149            7.34E-05 
      2057    30.984  3.10E+02       149            7.36E-05 
      2058    30.992 -1.70E+02       149            7.64E-05 
      2059    31.000 -1.00E+02       149            7.60E-05 
      2060    31.008  2.30E+02       149            7.42E-05 
      2061    31.016  1.60E+02       149            7.46E-05 
      2062    31.023  3.00E+01       149            7.54E-05 
      2063    31.031  1.00E+02       149            7.50E-05 
      2064    31.039  1.80E+02       149            7.46E-05 
      2065    31.047 -1.20E+02       149            7.63E-05 
      2066    31.054 -1.00E+01       149            7.58E-05 
      2067    31.062  8.00E+01       150            7.53E-05 
      2068    31.070 -4.00E+01       150            7.60E-05 
      2069    31.078  1.10E+02       150            7.51E-05 
      2070    31.085  6.00E+01       150            7.54E-05 
      2071    31.093  2.80E+02       150            7.43E-05 
      2072    31.101  3.20E+02       150            7.41E-05 
      2073    31.109  3.30E+02       150            7.41E-05 
      2074    31.117  2.50E+02       150            7.45E-05 
      2075    31.124  1.20E+02       150            7.53E-05 
      2076    31.132  2.80E+02       150            7.45E-05 
      2077    31.140  2.00E+01       150            7.59E-05 
      2078    31.148  3.20E+02       150            7.43E-05 
      2079    31.155  5.00E+01       150            7.58E-05 
      2080    31.163  8.00E+01       150            7.57E-05 
      2081    31.171  1.80E+02       150            7.52E-05 
      2082    31.179  1.00E+01       150            7.61E-05 
      2083    31.186  1.60E+02       150            7.54E-05 
      2084    31.194  1.50E+02       151            7.54E-05 
      2085    31.202  6.00E+01       151            7.60E-05 
      2086    31.210  2.60E+02       151            7.49E-05 
      2087    31.217  1.90E+02       151            7.53E-05 
      2088    31.225  0.00E+00       151            7.64E-05 
      2089    31.233  9.00E+01       151            7.59E-05 
      2090    31.241  1.30E+02       151            7.57E-05 
      2091    31.249  1.40E+02       151            7.57E-05 
      2092    31.256  4.00E+01       151            7.63E-05 
      2093    31.264 -4.00E+01       151            7.69E-05 
      2094    31.272  2.80E+02       151            7.50E-05 
      2095    31.280  2.10E+02       151            7.54E-05 
      2096    31.287  2.70E+02       151            7.52E-05 
      2097    31.295  4.00E+01       151            7.65E-05 
      2098    31.303  2.40E+02       151            7.54E-05 
      2099    31.311  3.20E+02       151            7.50E-05 
      2100    31.318  8.00E+01       151            7.64E-05 
      2101    31.326  1.60E+02       151            7.60E-05 
      2102    31.334  8.00E+01       152            7.65E-05 
      2103    31.342  1.10E+02       152            7.63E-05 
      2104    31.350  2.60E+02       152            7.55E-05 
      2105    31.357  1.30E+02       152            7.63E-05 
      2106    31.365  1.80E+02       152            7.60E-05 
      2107    31.373  1.00E+02       152            7.65E-05 
      2108    31.381 -5.00E+01       152            7.75E-05 
      2109    31.388  2.20E+02       152            7.59E-05 
      2110    31.396  2.00E+02       152            7.61E-05 
      2111    31.404  1.00E+02       152            7.66E-05 
      2112    31.412 -2.00E+01       152            7.74E-05 
      2113    31.419  1.20E+02       152            7.67E-05 
      2114    31.427 -4.00E+01       152            7.76E-05 
      2115    31.435  2.80E+02       152            7.58E-05 
      2116    31.443  4.00E+01       152            7.72E-05 
      2117    31.451  4.00E+01       152            7.72E-05 
      2118    31.458  1.90E+02       152            7.64E-05 
      2119    31.466  1.50E+02       152            7.66E-05 
      2120    31.474  1.00E+02       153            7.70E-05 
      2121    31.482  1.30E+02       153            7.68E-05 
      2122    31.489  2.00E+02       153            7.65E-05 
      2123    31.497 -1.00E+01       153            7.78E-05 
      2124    31.505  1.30E+02       153            7.69E-05 
      2125    31.513  1.60E+02       153            7.68E-05 
      2126    31.520  1.10E+02       153            7.71E-05 
      2127    31.528  3.10E+02       153            7.60E-05 
      2128    31.536  4.00E+01       153            7.76E-05 
      2129    31.544  2.00E+01       153            7.78E-05 
      2130    31.551  1.60E+02       153            7.70E-05 
      2131    31.559  2.00E+02       153            7.67E-05 
      2132    31.567  4.00E+01       153            7.77E-05 
      2133    31.575 -1.50E+02       153            7.90E-05 
      2134    31.583  1.80E+02       153            7.70E-05 
      2135    31.590  1.90E+02       153            7.70E-05 
      2136    31.598  2.00E+01       153            7.81E-05 
      2137    31.606  3.00E+01       153            7.80E-05 
      2138    31.614  0.00E+00       153            7.82E-05 
      2139    31.621  8.00E+01       154            7.78E-05 
      2140    31.629  8.00E+01       154            7.78E-05 
      2141    31.637  1.90E+02       154            7.72E-05 
      2142    31.645  1.20E+02       154            7.77E-05 
      2143    31.652  8.00E+01       154            7.79E-05 
      2144    31.660  1.00E+02       154            7.79E-05 
      2145    31.668  5.00E+01       154            7.83E-05 
      2146    31.676  1.70E+02       154            7.75E-05 
      2147    31.684 -6.00E+01       154            7.90E-05 
      2148    31.691  9.00E+01       154            7.81E-05 
      2149    31.699  2.30E+02       154            7.74E-05 
      2150    31.707  1.60E+02       154            7.77E-05 
      2151    31.715  1.10E+02       154            7.81E-05 
      2152    31.722  1.30E+02       154            7.81E-05 
      2153    31.730 -8.00E+01       154            7.94E-05 
      2154    31.738  9.00E+01       154            7.84E-05 
      2155    31.746  3.00E+01       154            7.88E-05 
      2156    31.753  3.00E+01       154            7.88E-05 
      2157    31.761  1.40E+02       154            7.82E-05 
      2158    31.769 -3.00E+01       154            7.93E-05 
      2159    31.777  2.00E+01       155            7.90E-05 
      2160    31.784  6.00E+01       155            7.88E-05 
      2161    31.792  9.00E+01       155            7.87E-05 
      2162    31.800  1.10E+02       155            7.86E-05 
      2163    31.808  1.50E+02       155            7.84E-05 
      2164    31.816  1.00E+01       155            7.93E-05 
      2165    31.823  1.20E+02       155            7.87E-05 
      2166    31.831 -6.00E+01       155            7.98E-05 
      2167    31.839 -4.00E+01       155            7.97E-05 
      2168    31.847  2.30E+02       155            7.81E-05 
      2169    31.854 -2.00E+01       155            7.97E-05 
      2170    31.862  2.30E+02       155            7.82E-05 
      2171    31.870  2.00E+01       155            7.96E-05 
      2172    31.878  2.10E+02       155            7.84E-05 
      2173    31.885 -5.00E+01       155            8.00E-05 
      2174    31.893 -7.00E+01       155            8.02E-05 
      2175    31.901  7.00E+01       155            7.94E-05 
      2176    31.909  1.30E+02       155            7.91E-05 
      2177    31.917 -2.70E+02       155            8.17E-05 
      2178    31.924  2.40E+02       155            7.85E-05 
      2179    31.932  4.00E+01       156            7.97E-05 
      2180    31.940  6.00E+01       156            7.97E-05 
      2181    31.948  1.60E+02       156            7.91E-05 
      2182    31.955  1.60E+02       156            7.91E-05 
      2183    31.963  1.50E+02       156            7.93E-05 
      2184    31.971  3.20E+02       156            7.83E-05 
      2185    31.979  2.60E+02       156            7.86E-05 
      2186    31.986 -9.00E+01       156            8.09E-05 
      2187    31.994  2.40E+02       156            7.88E-05 
      2188    32.002  7.00E+01       156            8.00E-05 
      2189    32.010  2.40E+02       156            7.90E-05 
      2190    32.017  2.00E+01       156            8.04E-05 
      2191    32.025 -6.00E+01       156            8.10E-05 
      2192    32.033  2.00E+02       156            7.93E-05 
      2193    32.041  1.50E+02       156            7.97E-05 
      2194    32.049  3.20E+02       156            7.87E-05 
      2195    32.056  9.00E+01       156            8.01E-05 
      2196    32.064  4.00E+01       156            8.05E-05 
      2197    32.072  5.00E+01       156            8.05E-05 
      2198    32.080  1.60E+02       156            7.99E-05 
      2199    32.087  3.40E+02       156            7.88E-05 
      2200    32.095  1.60E+02       156            7.99E-05 
      2201    32.103  0.00E+00       157            8.11E-05 
      2202    32.111 -5.00E+01       157            8.14E-05 
      2203    32.118  1.00E+02       157            8.04E-05 
      2204    32.126 -1.20E+02       157            8.20E-05 
      2205    32.134  6.00E+01       157            8.07E-05 
      2206    32.142 -5.00E+01       157            8.15E-05 
      2207    32.150  2.50E+02       157            7.97E-05 
      2208    32.157  1.30E+02       157            8.05E-05 
      2209    32.165  2.40E+02       157            7.98E-05 
      2210    32.173  5.00E+01       157            8.11E-05 
      2211    32.181  1.40E+02       157            8.06E-05 
      2212    32.188  1.60E+02       157            8.04E-05 
      2213    32.196  4.00E+01       157            8.13E-05 
      2214    32.204  2.60E+02       157            7.99E-05 
      2215    32.212 -1.00E+02       157            8.23E-05 
      2216    32.219  2.70E+02       157            7.99E-05 
      2217    32.227  5.00E+01       157            8.14E-05 
      2218    32.235  2.00E+02       157            8.04E-05 
      2219    32.243  1.70E+02       157            8.07E-05 
      2220    32.251  3.00E+01       157            8.17E-05 
      2221    32.258  1.60E+02       157            8.08E-05 
      2222    32.266 -1.00E+01       157            8.21E-05 
      2223    32.274  1.90E+02       158            8.07E-05 
      2224    32.282 -5.00E+01       158            8.24E-05 
      2225    32.289  1.00E+02       158            8.14E-05 
      2226    32.297 -1.00E+01       158            8.22E-05 
      2227    32.305 -1.70E+02       158            8.34E-05 
      2228    32.313  5.00E+01       158            8.19E-05 
      2229    32.320  1.60E+02       158            8.13E-05 
      2230    32.328  4.00E+01       158            8.21E-05 
      2231    32.336  1.00E+01       158            8.23E-05 
      2232    32.344  2.60E+02       158            8.07E-05 
      2233    32.351 -7.00E+01       158            8.30E-05 
      2234    32.359  1.30E+02       158            8.16E-05 
      2235    32.367 -1.40E+02       158            8.35E-05 
      2236    32.375  4.00E+01       158            8.24E-05 
      2237    32.383  7.00E+01       158            8.22E-05 
      2238    32.390  1.50E+02       158            8.17E-05 
      2239    32.398  1.90E+02       158            8.15E-05 
      2240    32.406  1.00E+02       158            8.21E-05 
      2241    32.414  8.00E+01       158            8.23E-05 
      2242    32.421  1.70E+02       158            8.18E-05 
      2243    32.429  1.50E+02       158            8.20E-05 
      2244    32.437 -2.00E+01       158            8.32E-05 
      2245    32.445  1.70E+02       158            8.19E-05 
      2246    32.452  1.70E+02       159            8.20E-05 
      2247    32.460  0.00E+00       159            8.32E-05 
      2248    32.468  8.00E+01       159            8.27E-05 
      2249    32.476  1.30E+02       159            8.24E-05 
      2250    32.484  1.90E+02       159            8.21E-05 
      2251    32.491  2.30E+02       159            8.17E-05 
      2252    32.499 -6.00E+01       159            8.38E-05 
      2253    32.507  1.50E+02       159            8.24E-05 
      2254    32.515  1.10E+02       159            8.27E-05 
      2255    32.522  1.60E+02       159            8.24E-05 
      2256    32.530  1.20E+02       159            8.28E-05 
      2257    32.538  8.00E+01       159            8.30E-05 
      2258    32.546  8.00E+01       159            8.31E-05 
      2259    32.553  1.00E+02       159            8.31E-05 
      2260    32.561  2.40E+02       159            8.22E-05 
      2261    32.569  1.00E+02       159            8.31E-05 
      2262    32.577  2.10E+02       159            8.25E-05 
      2263    32.584  2.00E+02       159            8.25E-05 
      2264    32.592  2.60E+02       159            8.22E-05 
      2265    32.600  1.30E+02       159            8.31E-05 
      2266    32.608  4.00E+02       159            8.14E-05 
      2267    32.616  1.00E+02       159            8.34E-05 
      2268    32.623  5.00E+01       159            8.38E-05 
      2269    32.631  2.10E+02       159            8.28E-05 
      2270    32.639  1.80E+02       160            8.30E-05 
      2271    32.647  1.60E+02       160            8.32E-05 
      2272    32.654  6.00E+01       160            8.40E-05 
      2273    32.662  5.00E+01       160            8.41E-05 
      2274    32.670  2.20E+02       160            8.29E-05 
      2275    32.678  1.20E+02       160            8.37E-05 
      2276    32.685  9.00E+01       160            8.40E-05 
      2277    32.693  1.20E+02       160            8.38E-05 
      2278    32.701  1.70E+02       160            8.35E-05 
      2279    32.709  1.80E+02       160            8.35E-05 
      2280    32.717  3.00E+01       160            8.45E-05 
      2281    32.724  2.50E+02       160            8.31E-05 
      2282    32.732  2.20E+02       160            8.33E-05 
      2283    32.740  3.80E+02       160            8.22E-05 
      2284    32.748  1.80E+02       160            8.37E-05 
      2285    32.755 -1.00E+01       160            8.51E-05 
      2286    32.763  2.90E+02       160            8.31E-05 
      2287    32.771  1.40E+02       160            8.41E-05 
      2288    32.779  2.00E+02       160            8.37E-05 
      2289    32.786  2.60E+02       160            8.34E-05 
      2290    32.794  3.60E+02       160            8.27E-05 
      2291    32.802  4.00E+02       160            8.25E-05 
      2292    32.810  1.10E+02       160            8.46E-05 
      2293    32.817  2.70E+02       160            8.35E-05 
      2294    32.825  4.00E+01       160            8.51E-05 
      2295    32.833  2.20E+02       160            8.39E-05 
      2296    32.841  1.40E+02       161            8.45E-05 
      2297    32.849  2.00E+02       161            8.41E-05 
      2298    32.856  2.50E+02       161            8.39E-05 
      2299    32.864  1.70E+02       161            8.45E-05 
      2300    32.872  2.80E+02       161            8.38E-05 
      2301    32.880  3.10E+02       161            8.36E-05 
      2302    32.887  9.00E+01       161            8.52E-05 
      2303    32.895  7.00E+01       161            8.54E-05 
      2304    32.903  1.50E+02       161            8.49E-05 
      2305    32.911  2.10E+02       161            8.46E-05 
      2306    32.918  3.40E+02       161            8.36E-05 
      2307    32.926  3.00E+02       161            8.39E-05 
      2308    32.934  1.60E+02       161            8.50E-05 
      2309    32.942  1.00E+01       161            8.61E-05 
      2310    32.950  2.00E+02       161            8.48E-05 
      2311    32.957  5.00E+01       161            8.60E-05 
      2312    32.965  2.30E+02       161            8.48E-05 
      2313    32.973  2.00E+01       161            8.63E-05 
      2314    32.981  1.00E+02       161            8.58E-05 
      2315    32.988  2.00E+02       161            8.50E-05 
      2316    32.996  2.60E+02       161            8.47E-05 
      2317    33.004  7.00E+01       161            8.61E-05 
      2318    33.012  5.00E+01       161            8.63E-05 
      2319    33.019  1.70E+02       161            8.54E-05 
      2320    33.027  4.10E+02       161            8.38E-05 
      2321    33.035  3.20E+02       161            8.45E-05 
      2322    33.043  3.10E+02       161            8.45E-05 
      2323    33.051  1.90E+02       161            8.55E-05 
      2324    33.058  4.00E+02       162            8.40E-05 
      2325    33.066  2.20E+02       162            8.54E-05 
      2326    33.074  1.90E+02       162            8.56E-05 
      2327    33.082  2.10E+02       162            8.54E-05 
      2328    33.089  2.30E+02       162            8.53E-05 
      2329    33.097  1.00E+02       162            8.64E-05 
      2330    33.105  1.40E+02       162            8.61E-05 
      2331    33.113  3.40E+02       162            8.47E-05 
      2332    33.120  0.00E+00       162            8.73E-05 
      2333    33.128  1.10E+02       162            8.65E-05 
      2334    33.136  2.40E+02       162            8.55E-05 
      2335    33.144  2.60E+02       162            8.54E-05 
      2336    33.151  2.40E+02       162            8.56E-05 
      2337    33.159  3.10E+02       162            8.51E-05 
      2338    33.167  1.60E+02       162            8.63E-05 
      2339    33.175  8.00E+01       162            8.69E-05 
      2340    33.183  9.00E+01       162            8.68E-05 
      2341    33.190  2.00E+02       162            8.61E-05 
      2342    33.198  1.90E+02       162            8.62E-05 
      2343    33.206  1.80E+02       162            8.63E-05 
      2344    33.214  2.40E+02       162            8.59E-05 
      2345    33.221  1.80E+02       162            8.64E-05 
      2346    33.229  1.90E+02       162            8.64E-05 
      2347    33.237  9.00E+01       162            8.72E-05 
      2348    33.245  1.50E+02       162            8.67E-05 
      2349    33.252  2.40E+02       162            8.61E-05 
      2350    33.260  7.00E+01       162            8.74E-05 
      2351    33.268  1.50E+02       162            8.69E-05 
      2352    33.276  3.00E+02       162            8.57E-05 
      2353    33.284  2.90E+02       163            8.59E-05 
      2354    33.291  6.00E+01       163            8.77E-05 
      2355    33.299  7.00E+01       163            8.77E-05 
      2356    33.307  5.00E+01       163            8.79E-05 
      2357    33.315  1.80E+02       163            8.69E-05 
      2358    33.322  4.60E+02       163            8.49E-05 
      2359    33.330  2.80E+02       163            8.62E-05 
      2360    33.338  8.00E+01       163            8.78E-05 
      2361    33.346  1.20E+02       163            8.75E-05 
      2362    33.353  1.90E+02       163            8.70E-05 
      2363    33.361  2.00E+02       163            8.71E-05 
      2364    33.369  2.90E+02       163            8.63E-05 
      2365    33.377  4.50E+02       163            8.53E-05 
      2366    33.384  1.60E+02       163            8.74E-05 
      2367    33.392  2.00E+02       163            8.72E-05 
      2368    33.400  2.20E+02       163            8.70E-05 
      2369    33.408  1.50E+02       163            8.77E-05 
      2370    33.416  1.70E+02       163            8.75E-05 
      2371    33.423  6.00E+01       163            8.84E-05 
      2372    33.431  2.10E+02       163            8.73E-05 
      2373    33.439  0.00E+00       163            8.89E-05 
      2374    33.447  3.30E+02       163            8.65E-05 
      2375    33.454  1.90E+02       163            8.75E-05 
      2376    33.462  3.00E+02       163            8.68E-05 
      2377    33.470  1.60E+02       163            8.79E-05 
      2378    33.478  1.20E+02       163            8.83E-05 
      2379    33.485  0.00E+00       163            8.92E-05 
      2380    33.493  1.60E+02       163            8.80E-05 
      2381    33.501  2.30E+02       163            8.75E-05 
      2382    33.509  2.40E+02       163            8.75E-05 
      2383    33.517  1.50E+02       163            8.82E-05 
      2384    33.524  1.00E+02       163            8.86E-05 
      2385    33.532  4.00E+01       164            8.92E-05 
      2386    33.540  3.80E+02       164            8.66E-05 
      2387    33.548  2.00E+02       164            8.81E-05 
      2388    33.555  1.00E+01       164            8.95E-05 
      2389    33.563  3.20E+02       164            8.72E-05 
      2390    33.571  1.00E+02       164            8.89E-05 
      2391    33.579  1.40E+02       164            8.86E-05 
      2392    33.586  1.20E+02       164            8.88E-05 
      2393    33.594  1.20E+02       164            8.89E-05 
      2394    33.602  2.90E+02       164            8.76E-05 
      2395    33.610  3.20E+02       164            8.74E-05 
      2396    33.618  2.80E+02       164            8.78E-05 
      2397    33.625  2.00E+02       164            8.85E-05 
      2398    33.633  9.00E+01       164            8.93E-05 
      2399    33.641  2.00E+01       164            8.99E-05 
      2400    33.649  3.70E+02       164            8.73E-05 
      2401    33.656  2.10E+02       164            8.85E-05 
      2402    33.664  3.00E+01       164            9.00E-05 
      2403    33.672 -5.00E+01       164            9.07E-05 
      2404    33.680  1.70E+02       164            8.90E-05 
      2405    33.687  1.40E+02       164            8.92E-05 
      2406    33.695  3.20E+02       164            8.79E-05 
      2407    33.703  2.30E+02       164            8.86E-05 
      2408    33.711  1.10E+02       164            8.96E-05 
      2409    33.718  2.40E+02       164            8.87E-05 
      2410    33.726  2.10E+02       164            8.89E-05 
      2411    33.734  1.20E+02       164            8.97E-05 
      2412    33.742 -3.00E+01       164            9.09E-05 
      2413    33.750  2.10E+02       164            8.91E-05 
      2414    33.757  4.40E+02       164            8.73E-05 
      2415    33.765  5.00E+01       164            9.04E-05 
      2416    33.773  8.00E+01       164            9.02E-05 
      2417    33.781  4.00E+01       164            9.06E-05 
      2418    33.788  2.20E+02       164            8.92E-05 
      2419    33.796  1.40E+02       165            8.98E-05 
      2420    33.804  5.00E+01       165            9.07E-05 
      2421    33.812  2.90E+02       165            8.87E-05 
      2422    33.819  1.30E+02       165            9.01E-05 
      2423    33.827  2.40E+02       165            8.92E-05 
      2424    33.835  7.00E+01       165            9.07E-05 
      2425    33.843 -2.00E+01       165            9.14E-05 
      2426    33.851  1.90E+02       165            8.98E-05 
      2427    33.858  1.70E+02       165            9.00E-05 
      2428    33.866  8.00E+01       165            9.07E-05 
      2429    33.874  2.20E+02       165            8.97E-05 
      2430    33.882  3.60E+02       165            8.86E-05 
      2431    33.889  1.90E+02       165            9.00E-05 
      2432    33.897  6.00E+01       165            9.11E-05 
      2433    33.905  3.90E+02       165            8.85E-05 
      2434    33.913  4.00E+02       165            8.84E-05 
      2435    33.920  3.00E+01       165            9.15E-05 
      2436    33.928  3.00E+01       165            9.15E-05 
      2437    33.936  3.00E+02       165            8.94E-05 
      2438    33.944  1.80E+02       165            9.03E-05 
      2439    33.951  2.20E+02       165            9.01E-05 
      2440    33.959  2.40E+02       165            9.00E-05 
      2441    33.967  2.10E+02       165            9.03E-05 
      2442    33.975  2.70E+02       165            8.99E-05 
      2443    33.983  1.30E+02       165            9.10E-05 
      2444    33.990  2.20E+02       165            9.03E-05 
      2445    33.998  1.90E+02       165            9.06E-05 
      2446    34.006  1.60E+02       165            9.09E-05 
      2447    34.014  9.00E+01       165            9.15E-05 
      2448    34.021  3.70E+02       165            8.93E-05 
      2449    34.029  3.00E+01       165            9.21E-05 
      2450    34.037  2.10E+02       165            9.07E-05 
      2451    34.045  2.70E+02       165            9.03E-05 
      2452    34.052  4.10E+02       165            8.91E-05 
      2453    34.060  3.10E+02       165            9.00E-05 
      2454    34.068  1.90E+02       165            9.10E-05 
      2455    34.076  1.70E+02       165            9.12E-05 
      2456    34.084  1.40E+02       165            9.15E-05 
      2457    34.091  1.00E+02       165            9.19E-05 
      2458    34.099  1.20E+02       166            9.17E-05 
      2459    34.107  7.00E+01       166            9.22E-05 
      2460    34.115  3.10E+02       166            9.03E-05 
      2461    34.122  2.00E+02       166            9.12E-05 
      2462    34.130  8.00E+01       166            9.24E-05 
      2463    34.138  2.20E+02       166            9.12E-05 
      2464    34.146  3.00E+02       166            9.06E-05 
      2465    34.153  1.90E+02       166            9.15E-05 
      2466    34.161  3.70E+02       166            9.01E-05 
      2467    34.169  2.00E+01       166            9.31E-05 
      2468    34.177  1.50E+02       166            9.20E-05 
      2469    34.184  1.20E+02       166            9.22E-05 
      2470    34.192  1.10E+02       166            9.25E-05 
      2471    34.200  2.50E+02       166            9.12E-05 
      2472    34.208  2.50E+02       166            9.13E-05 
      2473    34.216  3.00E+02       166            9.10E-05 
      2474    34.223 -9.00E+01       166            9.44E-05 
      2475    34.231 -1.00E+02       166            9.45E-05 
      2476    34.239  8.00E+01       166            9.29E-05 
      2477    34.247  3.20E+02       166            9.10E-05 
      2478    34.254  2.00E+02       166            9.20E-05 
      2479    34.262  2.70E+02       166            9.15E-05 
      2480    34.270  2.20E+02       166            9.19E-05 
      2481    34.278  3.70E+02       166            9.08E-05 
      2482    34.285  4.30E+02       209            9.02E-05 
      2483    34.293  1.90E+02       210            9.23E-05 
      2484    34.301  1.90E+02       211            9.24E-05 
      2485    34.309  2.70E+02       211            9.17E-05 
      2486    34.317  2.50E+02       212            9.20E-05 
      2487    34.324  4.10E+02       213            9.07E-05 
      2488    34.332  2.30E+02       214            9.22E-05 
      2489    34.340  2.00E+02       215            9.25E-05 
      2490    34.348  3.20E+02       216            9.16E-05 
      2491    34.355  2.70E+02       217            9.20E-05 
      2492    34.363  1.90E+02       218            9.28E-05 
      2493    34.371 -2.00E+01       219            9.46E-05 
      2494    34.379  2.40E+02       220            9.24E-05 
      2495    34.386  2.60E+02       221            9.23E-05 
      2496    34.394  2.50E+02       222            9.24E-05 
      2497    34.402  2.80E+02       223            9.22E-05 
      2498    34.410  3.50E+02       224            9.16E-05 
      2499    34.417  5.00E+01       225            9.43E-05 
      2500    34.425  1.40E+02       227            9.36E-05 
      2501    34.433  2.70E+02       228            9.25E-05 
      2502    34.441  2.80E+02       229            9.24E-05 
      2503    34.449  7.00E+01       230            9.43E-05 
      2504    34.456  6.00E+01       232            9.44E-05 
      2505    34.464  2.80E+02       233            9.26E-05 
      2506    34.472  1.70E+02       235            9.36E-05 
      2507    34.480  3.80E+02       236            9.18E-05 
      2508    34.487  3.80E+02       238            9.19E-05 
      2509    34.495  2.70E+02       239            9.29E-05 
      2510    34.503  2.60E+02       241            9.30E-05 
      2511    34.511  3.00E+02       243            9.27E-05 
      2512    34.518  3.20E+02       244            9.26E-05 
      2513    34.526  1.50E+02       246            9.41E-05 
      2514    34.534  3.70E+02       248            9.23E-05 
      2515    34.542  2.90E+02       250            9.30E-05 
      2516    34.550  2.50E+02       252            9.34E-05 
      2517    34.557  3.10E+02       254            9.30E-05 
      2518    34.565  3.80E+02       256            9.24E-05 
      2519    34.573  2.80E+02       259            9.33E-05 
      2520    34.581  8.00E+01       261            9.50E-05 
      2521    34.588  3.30E+02       264            9.30E-05 
      2522    34.596  3.70E+02       266            9.26E-05 
      2523    34.604  4.20E+02       269            9.22E-05 
      2524    34.612  3.10E+02       271            9.32E-05 
      2525    34.619  7.00E+01       274            9.55E-05 
      2526    34.627  2.80E+02       277            9.35E-05 
      2527    34.635  4.10E+02       280            9.25E-05 
      2528    34.643  3.00E+01       284            9.59E-05 
      2529    34.651  3.60E+02       287            9.30E-05 
      2530    34.658  1.70E+02       290            9.47E-05 
      2531    34.666  2.40E+02       294            9.41E-05 
      2532    34.674  6.00E+01       298            9.57E-05 
      2533    34.682  3.20E+02       302            9.36E-05 
      2534    34.689  2.10E+02       306            9.45E-05 
      2535    34.697  1.60E+02       310            9.51E-05 
      2536    34.705  5.20E+02       315            9.19E-05 
      2537    34.713  2.10E+02       320            9.47E-05 
      2538    34.720  3.00E+02       325            9.39E-05 
      2539    34.728  1.00E+02       330            9.57E-05 
      2540    34.736  2.10E+02       336            9.48E-05 
      2541    34.744  2.30E+02       341            9.46E-05 
      2542    34.751  2.90E+02       348            9.42E-05 
      2543    34.759  6.30E+02       354            9.13E-05 
      2544    34.767  4.60E+02       361            9.27E-05 
      2545    34.775  1.90E+02       368            9.51E-05 
      2546    34.783  3.70E+02       376            9.36E-05 
      2547    34.790  2.20E+02       384            9.50E-05 
      2548    34.798  2.20E+02       410            9.50E-05 
      2549    34.806  2.20E+02       420            9.51E-05 
      2550    34.814  3.40E+02       431            9.41E-05 
      2551    34.821  4.30E+02       442            9.33E-05 
      2552    34.829  2.90E+02       454            9.45E-05 
      2553    34.837  3.10E+02       467            9.44E-05 
      2554    34.845  5.20E+02       481            9.26E-05 
      2555    34.852  2.60E+02       497            9.49E-05 
      2556    34.860  4.00E+02       513            9.37E-05 
      2557    34.868  3.80E+02       530            9.40E-05 
      2558    34.876  4.30E+02       550            9.36E-05 
      2559    34.884  4.40E+02       571            9.36E-05 
      2560    34.891  5.40E+02       594            9.26E-05 
      2561    34.899  5.60E+02       621            9.26E-05 
      2562    34.907  4.20E+02       652            9.38E-05 
      2563    34.915  6.00E+02       689            9.24E-05 
      2564    34.922  7.50E+02       734            9.11E-05 
      2565    34.930  7.70E+02       791            9.09E-05 
      2566    34.938  5.50E+02       862            9.29E-05 
      2567    34.946  6.70E+02       953            9.18E-05 
      2568    34.953  8.80E+02  1.07E+03            9.02E-05 
      2569    34.961  1.06E+03  1.21E+03            8.88E-05 
      2570    34.969  1.18E+03  1.40E+03            8.78E-05 
      2571    34.977  1.46E+03  1.62E+03            8.58E-05 
      2572    34.984  1.74E+03  1.88E+03            8.38E-05 
      2573    34.992  2.06E+03  2.18E+03            8.17E-05 
      2574    35.000  2.34E+03  2.52E+03            7.99E-05 
      2575    35.008  2.77E+03  2.88E+03            7.72E-05 
      2576    35.016  3.18E+03  3.25E+03            7.49E-05 
      2577    35.023  3.62E+03  3.61E+03            7.25E-05 
      2578    35.031  3.87E+03  3.95E+03            7.12E-05 
      2579    35.039  4.25E+03  4.25E+03            6.94E-05 
      2580    35.047  4.56E+03  4.50E+03            6.79E-05 
      2581    35.054  4.68E+03  4.70E+03            6.74E-05 
      2582    35.062  5.01E+03  4.87E+03            6.60E-05 
      2583    35.070  5.21E+03  5.05E+03            6.52E-05 
      2584    35.078  5.18E+03  5.31E+03            6.53E-05 
      2585    35.085  5.51E+03  5.71E+03            6.39E-05 
      2586    35.093  6.02E+03  6.35E+03            6.19E-05 
      2587    35.101  6.95E+03  7.32E+03            5.86E-05 
      2588    35.109  8.04E+03  8.73E+03            5.51E-05 
      2589    35.117  9.59E+03  1.07E+04            5.08E-05 
      2590    35.124  1.22E+04  1.32E+04            4.49E-05 
      2591    35.132  1.56E+04  1.64E+04            3.89E-05 
      2592    35.140  1.95E+04  2.02E+04            3.38E-05 
      2593    35.148  2.40E+04  2.44E+04            2.94E-05 
      2594    35.155  2.93E+04  2.90E+04            2.54E-05 
      2595    35.163  3.39E+04  3.37E+04            2.27E-05 
      2596    35.171  3.84E+04  3.79E+04            2.06E-05 
      2597    35.179  4.18E+04  4.14E+04            1.93E-05 
      2598    35.186  4.37E+04  4.35E+04            1.86E-05 
      2599    35.194  4.39E+04  4.40E+04            1.85E-05 
      2600    35.202  4.23E+04  4.27E+04            1.91E-05 
      2601    35.210  3.98E+04  3.99E+04            2.01E-05 
      2602    35.217  3.55E+04  3.60E+04            2.20E-05 
      2603    35.225  3.11E+04  3.14E+04            2.43E-05 
      2604    35.233  2.60E+04  2.67E+04            2.78E-05 
      2605    35.241  2.22E+04  2.21E+04            3.10E-05 
      2606    35.249  1.80E+04  1.79E+04            3.57E-05 
      2607    35.256  1.51E+04  1.43E+04            3.99E-05 
      2608    35.264  1.20E+04  1.12E+04            4.53E-05 
      2609    35.272  9.71E+03  8.72E+03            5.07E-05 
      2610    35.280  8.12E+03  6.77E+03            5.51E-05 
      2611    35.287  6.58E+03  5.30E+03            6.03E-05 
      2612    35.295  5.46E+03  4.20E+03            6.46E-05 
      2613    35.303  4.53E+03  3.38E+03            6.88E-05 
      2614    35.311  3.77E+03  2.80E+03            7.26E-05 
      2615    35.318  2.82E+03  2.37E+03            7.81E-05 
      2616    35.326  2.63E+03  2.06E+03            7.93E-05 
      2617    35.334  2.26E+03  1.83E+03            8.16E-05 
      2618    35.342  1.73E+03  1.65E+03            8.54E-05 
      2619    35.350  1.66E+03  1.50E+03            8.59E-05 
      2620    35.357  1.29E+03  1.38E+03            8.88E-05 
      2621    35.365  1.14E+03  1.28E+03            9.00E-05 
      2622    35.373  1.02E+03  1.19E+03            9.11E-05 
      2623    35.381  9.62E+02  1.11E+03            9.16E-05 
      2624    35.388  9.27E+02  1.04E+03            9.19E-05 
      2625    35.396  7.41E+02       978            9.35E-05 
      2626    35.404  7.86E+02       922            9.32E-05 
      2627    35.412  8.31E+02       872            9.28E-05 
      2628    35.419  6.75E+02       827            9.43E-05 
      2629    35.427  4.00E+02       786            9.68E-05 
      2630    35.435  7.84E+02       748            9.34E-05 
      2631    35.443  6.79E+02       714            9.43E-05 
      2632    35.451  5.24E+02       683            9.58E-05 
      2633    35.458  4.98E+02       654            9.60E-05 
      2634    35.466  3.53E+02       628            9.74E-05 
      2635    35.474  3.97E+02       604            9.71E-05 
      2636    35.482  5.12E+02       581            9.60E-05 
      2637    35.489  4.07E+02       561            9.71E-05 
      2638    35.497  3.91E+02       541            9.73E-05 
      2639    35.505  3.36E+02       524            9.78E-05 
      2640    35.513  4.41E+02       507            9.69E-05 
      2641    35.520  4.15E+02       491            9.71E-05 
      2642    35.528  3.80E+02       477            9.76E-05 
      2643    35.536  5.14E+02       464            9.63E-05 
      2644    35.544  3.69E+02       451            9.77E-05 
      2645    35.551  2.64E+02       439            9.88E-05 
      2646    35.559  3.78E+02       428            9.78E-05 
      2647    35.567  3.43E+02       417            9.82E-05 
      2648    35.575  2.68E+02       408            9.90E-05 
      2649    35.583  3.32E+02       398            9.84E-05 
      2650    35.590  4.07E+02       390            9.76E-05 
      2651    35.598  1.81E+02       381            9.99E-05 
      2652    35.606  3.16E+02       374            9.87E-05 
      2653    35.614  3.71E+02       366            9.81E-05 
      2654    35.621  2.95E+02       359            9.89E-05 
      2655    35.629  1.04E+02       353            1.01E-04 
      2656    35.637  2.14E+02       346            9.98E-05 
      2657    35.645  1.46E+02       340            1.01E-04 
      2658    35.652  2.44E+02       335            9.96E-05 
      2659    35.660  2.58E+02       329            9.95E-05 
      2660    35.668  2.63E+02       324            9.95E-05 
      2661    35.676  2.14E+02       319            1.00E-04 
      2662    35.684  1.29E+02       315            1.01E-04 
      2663    35.691  2.11E+02       310            1.00E-04 
      2664    35.699  1.76E+02       306            1.01E-04 
      2665    35.707  4.86E+02       302            9.76E-05 
      2666    35.715  1.31E+02       298            1.01E-04 
      2667    35.722  2.07E+02       294            1.00E-04 
      2668    35.730  3.00E+02       291            9.95E-05 
      2669    35.738  1.47E+02       287            1.01E-04 
      2670    35.746  1.96E+02       284            1.01E-04 
      2671    35.753  3.54E+02       281            9.91E-05 
      2672    35.761  1.97E+02       278            1.01E-04 
      2673    35.769  4.43E+02       275            9.83E-05 
      2674    35.777  2.88E+02       272            9.99E-05 
      2675    35.784  1.93E+02       270            1.01E-04 
      2676    35.792  1.12E+02       267            1.02E-04 
      2677    35.800  2.10E+01       265            1.03E-04 
      2678    35.808  2.49E+02       262            1.01E-04 
      2679    35.816  1.46E+02       260            1.02E-04 
      2680    35.823  3.35E+02       258            9.97E-05 
      2681    35.831  2.76E+02       256            1.00E-04 
      2682    35.839  2.53E+02       254            1.01E-04 
      2683    35.847  1.30E+02       252            1.02E-04 
      2684    35.854 -3.00E+00       250            1.03E-04 
      2685    35.862  3.48E+02       248            9.98E-05 
      2686    35.870  3.93E+02       246            9.94E-05 
      2687    35.878  1.75E+02       244            1.02E-04 
      2688    35.885  2.80E+02       243            1.01E-04 
      2689    35.893  1.97E+02       241            1.02E-04 
      2690    35.901  2.10E+02       240            1.01E-04 
      2691    35.909  2.13E+02       238            1.01E-04 
      2692    35.917  2.45E+02       237            1.01E-04 
      2693    35.924  1.77E+02       235            1.02E-04 
      2694    35.932  3.48E+02       234            1.00E-04 
      2695    35.940  1.10E+02       233            1.03E-04 
      2696    35.948  1.50E+02       231            1.02E-04 
      2697    35.955  1.54E+02       230            1.02E-04 
      2698    35.963  2.27E+02       229            1.02E-04 
      2699    35.971  8.70E+01       228            1.03E-04 
      2700    35.979 -8.70E+01       227            1.05E-04 
      2701    35.986  2.03E+02       225            1.02E-04 
      2702    35.994  3.70E+01       224            1.04E-04 
      2703    36.002  1.25E+02       223            1.03E-04 
      2704    36.010  2.52E+02       222            1.02E-04 
      2705    36.018  3.89E+02       221            1.00E-04 
      2706    36.025  1.66E+02       220            1.03E-04 
      2707    36.033  1.05E+02       219            1.03E-04 
      2708    36.041  1.56E+02       219            1.03E-04 
      2709    36.049  1.20E+02       218            1.03E-04 
      2710    36.056  8.10E+01       217            1.04E-04 
      2711    36.064  1.17E+02       216            1.03E-04 
      2712    36.072  2.17E+02       215            1.02E-04 
      2713    36.080  2.00E+02       214            1.03E-04 
      2714    36.087  1.66E+02       214            1.03E-04 
      2715    36.095  2.89E+02       169            1.02E-04 
      2716    36.103  2.43E+02       169            1.02E-04 
      2717    36.111  2.65E+02       169            1.02E-04 
      2718    36.118  2.71E+02       169            1.02E-04 
      2719    36.126  2.19E+02       169            1.03E-04 
      2720    36.134  1.67E+02       169            1.03E-04 
      2721    36.142  3.55E+02       170            1.01E-04 
      2722    36.150  8.70E+01       170            1.04E-04 
      2723    36.157  1.77E+02       170            1.03E-04 
      2724    36.165  2.13E+02       170            1.03E-04 
      2725    36.173  1.24E+02       170            1.04E-04 
      2726    36.181  7.30E+01       170            1.05E-04 
      2727    36.188  3.87E+02       170            1.01E-04 
      2728    36.196  2.40E+01       170            1.05E-04 
      2729    36.204  1.12E+02       170            1.04E-04 
      2730    36.212  1.71E+02       170            1.04E-04 
      2731    36.219  1.80E+02       170            1.04E-04 
      2732    36.227  8.90E+01       170            1.05E-04 
      2733    36.235  1.04E+02       170            1.05E-04 
      2734    36.243  2.44E+02       170            1.03E-04 
      2735    36.251  1.53E+02       170            1.04E-04 
      2736    36.258  2.33E+02       170            1.03E-04 
      2737    36.266  1.70E+02       170            1.04E-04 
      2738    36.274  1.39E+02       170            1.05E-04 
      2739    36.282  1.19E+02       170            1.05E-04 
      2740    36.289  2.20E+02       170            1.04E-04 
      2741    36.297  2.95E+02       170            1.03E-04 
      2742    36.305 -5.00E+01       170            1.07E-04 
      2743    36.313  1.72E+02       170            1.04E-04 
      2744    36.320  2.37E+02       170            1.04E-04 
      2745    36.328  2.72E+02       170            1.03E-04 
      2746    36.336  1.71E+02       170            1.05E-04 
      2747    36.344  6.60E+01       170            1.06E-04 
      2748    36.351  3.21E+02       170            1.03E-04 
      2749    36.359  1.86E+02       170            1.05E-04 
      2750    36.367  1.20E+01       170            1.07E-04 
      2751    36.375  3.23E+02       170            1.03E-04 
      2752    36.383  2.31E+02       170            1.04E-04 
      2753    36.390  1.27E+02       170            1.05E-04 
      2754    36.398  3.12E+02       170            1.04E-04 
      2755    36.406  3.90E+01       170            1.07E-04 
      2756    36.414  1.20E+02       170            1.06E-04 
      2757    36.421  2.71E+02       170            1.04E-04 
      2758    36.429  9.60E+01       170            1.06E-04 
      2759    36.437  1.73E+02       170            1.05E-04 
      2760    36.445  3.37E+02       170            1.04E-04 
      2761    36.452  3.66E+02       170            1.03E-04 
      2762    36.460  1.28E+02       170            1.06E-04 
      2763    36.468  1.06E+02       170            1.06E-04 
      2764    36.476  2.16E+02       170            1.05E-04 
      2765    36.484  2.42E+02       170            1.05E-04 
      2766    36.491  1.82E+02       170            1.06E-04 
      2767    36.499  3.44E+02       170            1.04E-04 
      2768    36.507  1.45E+02       170            1.06E-04 
      2769    36.515  1.77E+02       170            1.06E-04 
      2770    36.522  2.06E+02       170            1.05E-04 
      2771    36.530  2.32E+02       170            1.05E-04 
      2772    36.538  1.33E+02       170            1.06E-04 
      2773    36.546  3.16E+02       170            1.04E-04 
      2774    36.553  2.08E+02       170            1.06E-04 
      2775    36.561  2.41E+02       170            1.05E-04 
      2776    36.569  2.50E+02       170            1.05E-04 
      2777    36.577  2.88E+02       170            1.05E-04 
      2778    36.584  1.84E+02       170            1.06E-04 
      2779    36.592  2.40E+01       170            1.08E-04 
      2780    36.600  2.21E+02       170            1.06E-04 
      2781    36.608  2.71E+02       170            1.05E-04 
      2782    36.616  1.42E+02       170            1.07E-04 
      2783    36.623  1.28E+02       170            1.07E-04 
      2784    36.631  6.20E+01       170            1.08E-04 
      2785    36.639  1.70E+02       170            1.07E-04 
      2786    36.647  1.39E+02       170            1.07E-04 
      2787    36.654  3.33E+02       170            1.05E-04 
      2788    36.662  1.08E+02       170            1.08E-04 
      2789    36.670  1.54E+02       170            1.07E-04 
      2790    36.678  8.50E+01       170            1.08E-04 
      2791    36.685  1.42E+02       170            1.07E-04 
      2792    36.693  3.80E+01       170            1.09E-04 
      2793    36.701  3.08E+02       170            1.06E-04 
      2794    36.709  1.90E+02       170            1.07E-04 
      2795    36.717  1.60E+02       170            1.07E-04 
      2796    36.724  1.33E+02       170            1.08E-04 
      2797    36.732  2.48E+02       170            1.06E-04 
      2798    36.740  4.08E+02       170            1.05E-04 
      2799    36.748  3.12E+02       170            1.06E-04 
      2800    36.755  5.90E+01       170            1.09E-04 
      2801    36.763  3.26E+02       170            1.06E-04 
      2802    36.771  1.40E+01       170            1.09E-04 
      2803    36.779  1.13E+02       170            1.08E-04 
      2804    36.786  2.04E+02       170            1.07E-04 
      2805    36.794  2.29E+02       170            1.07E-04 
      2806    36.802  3.31E+02       170            1.06E-04 
      2807    36.810  3.62E+02       170            1.06E-04 
      2808    36.818  3.64E+02       170            1.06E-04 
      2809    36.825  3.08E+02       170            1.06E-04 
      2810    36.833  1.03E+02       170            1.09E-04 
      2811    36.841  2.72E+02       170            1.07E-04 
      2812    36.849  2.47E+02       170            1.07E-04 
      2813    36.856  4.77E+02       170            1.05E-04 
      2814    36.864  4.07E+02       170            1.05E-04 
      2815    36.872  3.29E+02       170            1.06E-04 
      2816    36.880  2.11E+02       170            1.08E-04 
      2817    36.887  3.84E+02       170            1.06E-04 
      2818    36.895  4.69E+02       170            1.05E-04 
      2819    36.903  4.22E+02       170            1.05E-04 
      2820    36.911  2.88E+02       170            1.07E-04 
      2821    36.918  3.65E+02       170            1.06E-04 
      2822    36.926  4.02E+02       170            1.06E-04 
      2823    36.934  3.68E+02       170            1.06E-04 
      2824    36.942  2.88E+02       170            1.07E-04 
      2825    36.950  2.40E+02       170            1.08E-04 
      2826    36.957  1.13E+02       170            1.09E-04 
      2827    36.965  2.63E+02       170            1.08E-04 
      2828    36.973  4.05E+02       170            1.06E-04 
      2829    36.981  3.47E+02       170            1.07E-04 
      2830    36.988  2.94E+02       170            1.07E-04 
      2831    36.996  1.26E+02       170            1.09E-04 
      2832    37.004  1.51E+02       170            1.09E-04 
      2833    37.012  3.07E+02       170            1.07E-04 
      2834    37.019  3.06E+02       170            1.07E-04 
      2835    37.027  8.30E+01       170            1.10E-04 
      2836    37.035  3.53E+02       170            1.07E-04 
      2837    37.043  1.25E+02       170            1.10E-04 
      2838    37.051  1.70E+02       170            1.09E-04 
      2839    37.058  2.78E+02       170            1.08E-04 
      2840    37.066  2.15E+02       170            1.09E-04 
      2841    37.074  2.10E+02       170            1.09E-04 
      2842    37.082  3.73E+02       170            1.07E-04 
      2843    37.089  1.18E+02       170            1.10E-04 
      2844    37.097  2.53E+02       184            1.08E-04 
      2845    37.105  1.99E+02       185            1.09E-04 
      2846    37.113  2.19E+02       185            1.09E-04 
      2847    37.120  2.12E+02       185            1.09E-04 
      2848    37.128  3.80E+01       185            1.11E-04 
      2849    37.136  1.89E+02       185            1.09E-04 
      2850    37.144 -3.40E+01       186            1.12E-04 
      2851    37.151  1.04E+02       186            1.10E-04 
      2852    37.159  6.90E+01       186            1.11E-04 
      2853    37.167  2.01E+02       186            1.09E-04 
      2854    37.175  1.11E+02       187            1.10E-04 
      2855    37.183  8.40E+01       187            1.11E-04 
      2856    37.190  1.37E+02       187            1.10E-04 
      2857    37.198  3.86E+02       187            1.07E-04 
      2858    37.206  2.79E+02       188            1.09E-04 
      2859    37.214  2.22E+02       188            1.09E-04 
      2860    37.221  5.20E+01       188            1.11E-04 
      2861    37.229  1.05E+02       189            1.11E-04 
      2862    37.237  1.77E+02       189            1.10E-04 
      2863    37.245  2.74E+02       189            1.09E-04 
      2864    37.252  1.11E+02       189            1.11E-04 
      2865    37.260  4.50E+01       190            1.12E-04 
      2866    37.268  1.84E+02       190            1.10E-04 
      2867    37.276  2.25E+02       190            1.10E-04 
      2868    37.284  1.80E+01       191            1.12E-04 
      2869    37.291  2.55E+02       191            1.09E-04 
      2870    37.299  3.66E+02       191            1.08E-04 
      2871    37.307  1.45E+02       192            1.11E-04 
      2872    37.315  2.10E+02       192            1.10E-04 
      2873    37.322  8.60E+01       193            1.12E-04 
      2874    37.330  1.39E+02       193            1.11E-04 
      2875    37.338  1.48E+02       193            1.11E-04 
      2876    37.346  1.72E+02       194            1.11E-04 
      2877    37.353  1.60E+02       194            1.11E-04 
      2878    37.361  2.14E+02       195            1.10E-04 
      2879    37.369  1.92E+02       195            1.11E-04 
      2880    37.377  2.22E+02       196            1.10E-04 
      2881    37.384  2.03E+02       196            1.11E-04 
      2882    37.392  2.60E+02       196            1.10E-04 
      2883    37.400  1.04E+02       197            1.12E-04 
      2884    37.408  2.66E+02       197            1.10E-04 
      2885    37.416 -8.00E+00       207            1.13E-04 
      2886    37.423  1.68E+02       208            1.11E-04 
      2887    37.431  8.10E+01       209            1.12E-04 
      2888    37.439  1.49E+02       210            1.12E-04 
      2889    37.447  2.78E+02       211            1.10E-04 
      2890    37.454  3.18E+02       213            1.10E-04 
      2891    37.462  1.42E+02       214            1.12E-04 
      2892    37.470  2.01E+02       216            1.11E-04 
      2893    37.478  2.73E+02       218            1.10E-04 
      2894    37.485  2.02E+02       219            1.11E-04 
      2895    37.493  1.95E+02       222            1.11E-04 
      2896    37.501  1.97E+02       224            1.11E-04 
      2897    37.509  2.38E+02       227            1.11E-04 
      2898    37.517  1.30E+02       231            1.12E-04 
      2899    37.524  1.23E+02       235            1.12E-04 
      2900    37.532  9.50E+01       242            1.13E-04 
      2901    37.540  2.02E+02       251            1.11E-04 
      2902    37.548  1.95E+02       263            1.12E-04 
      2903    37.555  4.06E+02       280            1.09E-04 
      2904    37.563  2.71E+02       304            1.11E-04 
      2905    37.571  2.73E+02       338            1.11E-04 
      2906    37.579  3.25E+02       382            1.10E-04 
      2907    37.586  4.29E+02       440            1.09E-04 
      2908    37.594  4.05E+02       514            1.09E-04 
      2909    37.602  8.18E+02       604            1.05E-04 
      2910    37.610  5.59E+02       712            1.08E-04 
      2911    37.618  7.24E+02       835            1.06E-04 
      2912    37.625  9.57E+02       971            1.03E-04 
      2913    37.633  1.10E+03  1.11E+03            1.02E-04 
      2914    37.641  1.32E+03  1.26E+03            9.96E-05 
      2915    37.649  1.38E+03  1.39E+03            9.90E-05 
      2916    37.656  1.46E+03  1.50E+03            9.82E-05 
      2917    37.664  1.45E+03  1.58E+03            9.84E-05 
      2918    37.672  1.66E+03  1.63E+03            9.65E-05 
      2919    37.680  1.64E+03  1.63E+03            9.66E-05 
      2920    37.687  1.41E+03  1.59E+03            9.89E-05 
      2921    37.695  1.40E+03  1.51E+03            9.90E-05 
      2922    37.703  1.26E+03  1.40E+03            1.00E-04 
      2923    37.711  1.39E+03  1.27E+03            9.92E-05 
      2924    37.718  1.00E+03  1.13E+03            1.03E-04 
      2925    37.726  9.26E+02       992            1.04E-04 
      2926    37.734  7.74E+02       860            1.06E-04 
      2927    37.742  7.44E+02       740            1.06E-04 
      2928    37.750  6.63E+02       636            1.07E-04 
      2929    37.757  4.37E+02       550            1.10E-04 
      2930    37.765  3.23E+02       480            1.11E-04 
      2931    37.773  3.70E+02       426            1.11E-04 
      2932    37.781  3.83E+02       386            1.11E-04 
      2933    37.788  4.68E+02       358            1.10E-04 
      2934    37.796  5.27E+02       338            1.09E-04 
      2935    37.804  1.61E+02       325            1.14E-04 
      2936    37.812  4.10E+02       318            1.10E-04 
      2937    37.819  3.21E+02       314            1.12E-04 
      2938    37.827  2.47E+02       313            1.13E-04 
      2939    37.835  2.60E+02       313            1.12E-04 
      2940    37.843  2.46E+02       315            1.13E-04 
      2941    37.851  3.88E+02       318            1.11E-04 
      2942    37.858  3.05E+02       322            1.12E-04 
      2943    37.866  2.98E+02       326            1.12E-04 
      2944    37.874  1.34E+02       331            1.14E-04 
      2945    37.882  2.75E+02       337            1.13E-04 
      2946    37.889  1.72E+02       343            1.14E-04 
      2947    37.897  2.00E+02       349            1.14E-04 
      2948    37.905  2.11E+02       357            1.14E-04 
      2949    37.913  3.85E+02       364            1.11E-04 
      2950    37.920  2.78E+02       373            1.13E-04 
      2951    37.928  3.26E+02       373            1.12E-04 
      2952    37.936  2.52E+02       384            1.13E-04 
      2953    37.944  4.03E+02       396            1.11E-04 
      2954    37.951  1.93E+02       408            1.14E-04 
      2955    37.959  1.62E+02       422            1.14E-04 
      2956    37.967  2.43E+02       437            1.13E-04 
      2957    37.975  1.82E+02       453            1.14E-04 
      2958    37.983  3.70E+02       470            1.12E-04 
      2959    37.990  2.36E+02       490            1.14E-04 
      2960    37.998  3.49E+02       511            1.12E-04 
      2961    38.006  3.77E+02       534            1.12E-04 
      2962    38.014  4.68E+02       560            1.11E-04 
      2963    38.021  4.62E+02       588            1.11E-04 
      2964    38.029  2.54E+02       620            1.14E-04 
      2965    38.037  3.88E+02       656            1.12E-04 
      2966    38.045  3.91E+02       696            1.12E-04 
      2967    38.052  3.03E+02       742            1.13E-04 
      2968    38.060  5.14E+02       795            1.11E-04 
      2969    38.068  4.90E+02       858            1.11E-04 
      2970    38.076  5.73E+02       935            1.10E-04 
      2971    38.084  6.72E+02  1.03E+03            1.09E-04 
      2972    38.091  8.14E+02  1.15E+03            1.07E-04 
      2973    38.099  7.34E+02  1.32E+03            1.08E-04 
      2974    38.107  1.08E+03  1.54E+03            1.04E-04 
      2975    38.115  1.13E+03  1.84E+03            1.04E-04 
      2976    38.122  1.53E+03  2.26E+03            9.97E-05 
      2977    38.130  2.11E+03  2.83E+03            9.43E-05 
      2978    38.138  2.66E+03  3.58E+03            8.97E-05 
      2979    38.146  3.79E+03  4.57E+03            8.14E-05 
      2980    38.153  5.29E+03  5.82E+03            7.26E-05 
      2981    38.161  6.93E+03  7.36E+03            6.49E-05 
      2982    38.169  9.19E+03  9.18E+03            5.66E-05 
      2983    38.177  1.16E+04  1.13E+04            4.97E-05 
      2984    38.184  1.44E+04  1.35E+04            4.38E-05 
      2985    38.192  1.66E+04  1.59E+04            3.99E-05 
      2986    38.200  1.88E+04  1.81E+04            3.66E-05 
      2987    38.208  2.08E+04  2.01E+04            3.42E-05 
      2988    38.216  2.22E+04  2.15E+04            3.26E-05 
      2989    38.223  2.22E+04  2.23E+04            3.26E-05 
      2990    38.231  2.20E+04  2.21E+04            3.28E-05 
      2991    38.239  2.07E+04  2.12E+04            3.43E-05 
      2992    38.247  1.91E+04  1.96E+04            3.63E-05 
      2993    38.254  1.63E+04  1.75E+04            4.04E-05 
      2994    38.262  1.45E+04  1.52E+04            4.36E-05 
      2995    38.270  1.24E+04  1.29E+04            4.80E-05 
      2996    38.278  1.03E+04  1.06E+04            5.35E-05 
      2997    38.285  8.63E+03  8.62E+03            5.86E-05 
      2998    38.293  7.31E+03  6.88E+03            6.36E-05 
      2999    38.301  6.03E+03  5.43E+03            6.92E-05 
      3000    38.309  4.91E+03  4.26E+03            7.51E-05 
      3001    38.317  4.30E+03  3.34E+03            7.87E-05 
      3002    38.324  3.53E+03  2.65E+03            8.38E-05 
      3003    38.332  3.07E+03  2.13E+03            8.72E-05 
      3004    38.340  2.52E+03  1.75E+03            9.16E-05 
      3005    38.348  2.23E+03  1.47E+03            9.41E-05 
      3006    38.355  1.72E+03  1.27E+03            9.90E-05 
      3007    38.363  1.74E+03  1.12E+03            9.88E-05 
      3008    38.371  1.29E+03  1.00E+03            1.03E-04 
      3009    38.379  1.10E+03       911            1.06E-04 
      3010    38.386  9.68E+02       839            1.07E-04 
      3011    38.394  1.08E+03       779            1.06E-04 
      3012    38.402  8.40E+02       728            1.09E-04 
      3013    38.410  7.50E+02       684            1.10E-04 
      3014    38.418  7.15E+02       645            1.10E-04 
      3015    38.425  6.85E+02       610            1.11E-04 
      3016    38.433  5.87E+02       579            1.12E-04 
      3017    38.441  6.45E+02       552            1.11E-04 
      3018    38.449  3.64E+02       527            1.15E-04 
      3019    38.456  3.89E+02       504            1.15E-04 
      3020    38.464  5.50E+02       483            1.13E-04 
      3021    38.472  4.26E+02       465            1.14E-04 
      3022    38.480  2.91E+02       447            1.16E-04 
      3023    38.487  3.70E+02       432            1.15E-04 
      3024    38.495  2.82E+02       417            1.16E-04 
      3025    38.503  3.28E+02       404            1.16E-04 
      3026    38.511  3.37E+02       392            1.16E-04 
      3027    38.518  1.58E+02       380            1.18E-04 
      3028    38.526  3.96E+02       370            1.15E-04 
      3029    38.534  1.71E+02       360            1.18E-04 
      3030    38.542  2.78E+02       351            1.17E-04 
      3031    38.550  1.03E+02       342            1.19E-04 
      3032    38.557  1.88E+02       335            1.18E-04 
      3033    38.565  3.45E+02       327            1.16E-04 
      3034    38.573  1.55E+02       320            1.18E-04 
      3035    38.581  3.05E+02       314            1.16E-04 
      3036    38.588  3.58E+02       308            1.16E-04 
      3037    38.596  2.66E+02       302            1.17E-04 
      3038    38.604  1.03E+02       297            1.19E-04 
      3039    38.612  1.33E+02       292            1.19E-04 
      3040    38.619  8.20E+01       287            1.20E-04 
      3041    38.627  2.50E+02       283            1.18E-04 
      3042    38.635  3.67E+02       278            1.16E-04 
      3043    38.643  2.30E+01       274            1.21E-04 
      3044    38.651  2.21E+02       271            1.18E-04 
      3045    38.658  2.64E+02       267            1.18E-04 
      3046    38.666  2.63E+02       264            1.18E-04 
      3047    38.674  2.11E+02       260            1.18E-04 
      3048    38.682  1.24E+02       257            1.20E-04 
      3049    38.689  2.68E+02       254            1.18E-04 
      3050    38.697  2.28E+02       252            1.18E-04 
      3051    38.705  1.35E+02       249            1.20E-04 
      3052    38.713  3.26E+02       246            1.17E-04 
      3053    38.720  2.53E+02       244            1.18E-04 
      3054    38.728  3.15E+02       242            1.17E-04 
      3055    38.736  1.03E+02       240            1.20E-04 
      3056    38.744  1.64E+02       237            1.19E-04 
      3057    38.751  1.26E+02       235            1.20E-04 
      3058    38.759  1.14E+02       234            1.20E-04 
      3059    38.767  1.16E+02       232            1.20E-04 
      3060    38.775  3.53E+02       230            1.17E-04 
      3061    38.783  4.70E+01       228            1.21E-04 
      3062    38.790  2.39E+02       227            1.19E-04 
      3063    38.798  1.63E+02       225            1.20E-04 
      3064    38.806  3.50E+01       224            1.22E-04 
      3065    38.814  1.40E+02       222            1.20E-04 
      3066    38.821  1.50E+02       221            1.20E-04 
      3067    38.829  1.74E+02       219            1.20E-04 
      3068    38.837  2.02E+02       218            1.20E-04 
      3069    38.845  1.17E+02       217            1.21E-04 
      3070    38.852  2.88E+02       216            1.18E-04 
      3071    38.860  2.82E+02       214            1.19E-04 
      3072    38.868  6.00E+01       213            1.22E-04 
      3073    38.876 -5.00E+01       212            1.24E-04 
      3074    38.884  1.89E+02       211            1.20E-04 
      3075    38.891  1.03E+02       210            1.21E-04 
      3076    38.899  2.20E+02       209            1.20E-04 
      3077    38.907  3.12E+02       208            1.18E-04 
      3078    38.915  2.21E+02       207            1.20E-04 
      3079    38.922  1.01E+02       207            1.22E-04 
      3080    38.930  1.71E+02       206            1.21E-04 
      3081    38.938  3.28E+02       205            1.18E-04 
      3082    38.946  1.37E+02       204            1.21E-04 
      3083    38.953  4.80E+01       203            1.23E-04 
      3084    38.961  1.83E+02       203            1.21E-04 
      3085    38.969  1.09E+02       202            1.22E-04 
      3086    38.977  1.36E+02       201            1.21E-04 
      3087    38.984  6.90E+01       201            1.23E-04 
      3088    38.992  9.70E+01       200            1.22E-04 
      3089    39.000  6.00E+00       199            1.24E-04 
      3090    39.008 -1.60E+01       199            1.24E-04 
      3091    39.016  2.04E+02       198            1.21E-04 
      3092    39.023  1.22E+02       197            1.22E-04 
      3093    39.031  2.18E+02       197            1.21E-04 
      3094    39.039  1.71E+02       196            1.21E-04 
      3095    39.047  1.49E+02       196            1.22E-04 
      3096    39.054  7.80E+01       195            1.23E-04 
      3097    39.062  5.20E+01       195            1.23E-04 
      3098    39.070  6.40E+01       194            1.23E-04 
      3099    39.078  1.54E+02       194            1.22E-04 
      3100    39.085  2.25E+02       193            1.21E-04 
      3101    39.093  1.09E+02       193            1.23E-04 
      3102    39.101  1.90E+02       192            1.22E-04 
      3103    39.109  1.10E+02       192            1.23E-04 
      3104    39.117  2.23E+02       192            1.21E-04 
      3105    39.124 -9.40E+01       191            1.26E-04 
      3106    39.132  4.80E+01       191            1.24E-04 
      3107    39.140  1.96E+02       190            1.22E-04 
      3108    39.148  2.00E+00       190            1.25E-04 
      3109    39.155  5.50E+01       190            1.24E-04 
      3110    39.163  1.18E+02       189            1.23E-04 
      3111    39.171  1.19E+02       189            1.23E-04 
      3112    39.179  8.90E+01       189            1.24E-04 
      3113    39.186  1.22E+02       188            1.23E-04 
      3114    39.194  1.07E+02       188            1.23E-04 
      3115    39.202  3.52E+02       188            1.20E-04 
      3116    39.210  9.50E+01       187            1.24E-04 
      3117    39.218  5.80E+01       187            1.24E-04 
      3118    39.225  1.39E+02       187            1.23E-04 
      3119    39.233  2.76E+02       186            1.21E-04 
      3120    39.241  1.10E+02       186            1.24E-04 
      3121    39.249  1.10E+02       186            1.24E-04 
      3122    39.256  3.60E+01       185            1.25E-04 
      3123    39.264  7.70E+01       185            1.24E-04 
      3124    39.272  3.15E+02       185            1.21E-04 
      3125    39.280  2.71E+02       185            1.21E-04 
      3126    39.287  7.40E+01       184            1.25E-04 
      3127    39.295 -2.60E+01       184            1.26E-04 
      3128    39.303  1.57E+02       184            1.23E-04 
      3129    39.311  2.00E+00       184            1.26E-04 
      3130    39.318  1.30E+02       183            1.24E-04 
      3131    39.326  2.57E+02       183            1.22E-04 
      3132    39.334  1.77E+02       183            1.23E-04 
      3133    39.342 -1.80E+01       183            1.26E-04 
      3134    39.350  1.77E+02       183            1.23E-04 
      3135    39.357  2.01E+02       168            1.23E-04 
      3136    39.365  1.23E+02       168            1.24E-04 
      3137    39.373  1.10E+02       168            1.24E-04 
      3138    39.381  1.42E+02       168            1.24E-04 
      3139    39.388  1.22E+02       168            1.24E-04 
      3140    39.396  1.42E+02       168            1.24E-04 
      3141    39.404  3.40E+01       168            1.26E-04 
      3142    39.412  1.68E+02       168            1.24E-04 
      3143    39.419  1.38E+02       168            1.24E-04 
      3144    39.427  1.66E+02       168            1.24E-04 
      3145    39.435  1.58E+02       168            1.24E-04 
      3146    39.443  2.10E+01       168            1.26E-04 
      3147    39.451  1.44E+02       168            1.24E-04 
      3148    39.458  1.93E+02       168            1.24E-04 
      3149    39.466  2.01E+02       168            1.24E-04 
      3150    39.474  6.10E+01       168            1.26E-04 
      3151    39.482  1.63E+02       168            1.24E-04 
      3152    39.489  1.30E+02       168            1.25E-04 
      3153    39.497 -2.50E+01       168            1.27E-04 
      3154    39.505  2.00E+02       168            1.24E-04 
      3155    39.513  3.07E+02       168            1.22E-04 
      3156    39.520  2.59E+02       168            1.23E-04 
      3157    39.528  2.10E+01       168            1.27E-04 
      3158    39.536 -4.20E+01       168            1.28E-04 
      3159    39.544  1.90E+02       168            1.24E-04 
      3160    39.551  1.60E+02       167            1.25E-04 
      3161    39.559  9.30E+01       167            1.26E-04 
      3162    39.567  3.44E+02       167            1.22E-04 
      3163    39.575  8.80E+01       167            1.26E-04 
      3164    39.583  1.30E+02       167            1.25E-04 
      3165    39.590  6.00E+01       167            1.27E-04 
      3166    39.598  1.37E+02       167            1.25E-04 
      3167    39.606  5.60E+01       167            1.27E-04 
      3168    39.614 -1.10E+01       167            1.28E-04 
      3169    39.621  8.90E+01       167            1.26E-04 
      3170    39.629 -2.10E+01       167            1.28E-04 
      3171    39.637  9.20E+01       167            1.26E-04 
      3172    39.645  1.80E+02       167            1.25E-04 
      3173    39.652  1.07E+02       167            1.26E-04 
      3174    39.660 -5.40E+01       167            1.29E-04 
      3175    39.668  1.00E+00       167            1.28E-04 
      3176    39.676  1.43E+02       167            1.26E-04 
      3177    39.684  1.56E+02       167            1.26E-04 
      3178    39.691  2.65E+02       167            1.24E-04 
      3179    39.699  8.20E+01       167            1.27E-04 
      3180    39.707  1.37E+02       167            1.26E-04 
      3181    39.715  1.62E+02       167            1.26E-04 
      3182    39.722  1.27E+02       167            1.26E-04 
      3183    39.730  1.49E+02       167            1.26E-04 
      3184    39.738  1.28E+02       167            1.27E-04 
      3185    39.746  1.39E+02       167            1.26E-04 
      3186    39.753  9.50E+01       167            1.27E-04 
      3187    39.761  2.02E+02       167            1.25E-04 
      3188    39.769  3.80E+01       167            1.28E-04 
      3189    39.777  4.00E+00       167            1.29E-04 
      3190    39.784  6.90E+01       167            1.28E-04 
      3191    39.792  1.06E+02       167            1.27E-04 
      3192    39.800  1.96E+02       167            1.26E-04 
      3193    39.808  6.40E+01       167            1.28E-04 
      3194    39.816  5.00E+00       167            1.29E-04 
      3195    39.823  1.23E+02       167            1.27E-04 
      3196    39.831  1.20E+02       167            1.27E-04 
      3197    39.839  2.76E+02       167            1.25E-04 
      3198    39.847  1.08E+02       167            1.28E-04 
      3199    39.854  7.00E+01       167            1.28E-04 
      3200    39.862  1.09E+02       167            1.28E-04 
      3201    39.870  8.10E+01       167            1.28E-04 
      3202    39.878  1.04E+02       167            1.28E-04 
      3203    39.885  1.85E+02       167            1.27E-04 
      3204    39.893  4.90E+01       167            1.29E-04 
      3205    39.901  1.29E+02       167            1.28E-04 
      3206    39.909  1.18E+02       167            1.28E-04 
      3207    39.917  6.10E+01       167            1.29E-04 
      3208    39.924  9.10E+01       167            1.28E-04 
      3209    39.932  6.40E+01       167            1.29E-04 
      3210    39.940  2.14E+02       167            1.26E-04 
      3211    39.948  1.86E+02       167            1.27E-04 
      3212    39.955  1.55E+02       167            1.28E-04 
      3213    39.963  1.00E+01       167            1.30E-04 
      3214    39.971  2.47E+02       167            1.26E-04 
      3215    39.979  3.12E+02       167            1.25E-04 
      3216    39.986  2.73E+02       167            1.26E-04 
      3217    39.994  1.60E+02       167            1.28E-04 
      3218    40.002  1.24E+02       167            1.28E-04 
      3219    40.010  1.19E+02       167            1.28E-04 
      3220    40.018 -5.00E+00       167            1.31E-04 
      3221    40.025  2.29E+02       167            1.27E-04 
      3222    40.033  1.26E+02       167            1.29E-04 
      3223    40.041  8.40E+01       167            1.29E-04 
      3224    40.049  2.50E+01       167            1.30E-04 
      3225    40.056  7.60E+01       167            1.29E-04 
      3226    40.064  1.71E+02       167            1.28E-04 
      3227    40.072  2.57E+02       166            1.27E-04 
      3228    40.080 -3.40E+01       166            1.32E-04 
      3229    40.087  3.22E+02       166            1.26E-04 
      3230    40.095  2.54E+02       166            1.27E-04 
      3231    40.103  1.89E+02       166            1.28E-04 
      3232    40.111  4.80E+01       166            1.30E-04 
      3233    40.118  2.37E+02       166            1.27E-04 
      3234    40.126  1.75E+02       166            1.28E-04 
      3235    40.134  3.57E+02       166            1.25E-04 
      3236    40.142 -7.20E+01       166            1.33E-04 
      3237    40.150  8.30E+01       166            1.30E-04 
      3238    40.157 -1.19E+02       166            1.34E-04 
      3239    40.165  6.40E+01       166            1.30E-04 
      3240    40.173  1.88E+02       166            1.28E-04 
      3241    40.181  2.06E+02       166            1.28E-04 
      3242    40.188  2.25E+02       166            1.28E-04 
      3243    40.196  1.77E+02       166            1.29E-04 
      3244    40.204  1.49E+02       166            1.29E-04 
      3245    40.212  1.70E+01       166            1.32E-04 
      3246    40.219  1.39E+02       166            1.30E-04 
      3247    40.227  2.29E+02       166            1.28E-04 
      3248    40.235  1.83E+02       166            1.29E-04 
      3249    40.243  9.40E+01       166            1.30E-04 
      3250    40.251  2.70E+01       166            1.32E-04 
      3251    40.258  2.33E+02       166            1.28E-04 
      3252    40.266  2.06E+02       166            1.29E-04 
      3253    40.274  5.70E+01       166            1.31E-04 
      3254    40.282  1.78E+02       166            1.29E-04 
      3255    40.289  6.30E+01       166            1.31E-04 
      3256    40.297  1.73E+02       166            1.29E-04 
      3257    40.305  4.40E+01       166            1.32E-04 
      3258    40.313  1.39E+02       166            1.30E-04 
      3259    40.320  1.86E+02       166            1.29E-04 
      3260    40.328  2.30E+01       166            1.32E-04 
      3261    40.336  1.54E+02       166            1.30E-04 
      3262    40.344 -2.80E+01       166            1.33E-04 
      3263    40.351  1.00E+01       166            1.33E-04 
      3264    40.359 -1.00E+01       166            1.33E-04 
      3265    40.367  2.00E+02       168            1.30E-04 
      3266    40.375  1.05E+02       168            1.31E-04 
      3267    40.383  9.80E+01       168            1.31E-04 
      3268    40.390  1.71E+02       168            1.30E-04 
      3269    40.398  1.21E+02       168            1.31E-04 
      3270    40.406  7.60E+01       168            1.32E-04 
      3271    40.414  9.00E+01       168            1.32E-04 
      3272    40.421  2.86E+02       168            1.28E-04 
      3273    40.429  8.10E+01       168            1.32E-04 
      3274    40.437  1.35E+02       169            1.31E-04 
      3275    40.445  5.10E+01       169            1.33E-04 
      3276    40.452  2.70E+01       169            1.33E-04 
      3277    40.460  1.94E+02       169            1.30E-04 
      3278    40.468  1.33E+02       169            1.31E-04 
      3279    40.476  2.00E+02       169            1.30E-04 
      3280    40.484  2.04E+02       169            1.30E-04 
      3281    40.491  2.00E+00       169            1.34E-04 
      3282    40.499  6.00E+01       169            1.33E-04 
      3283    40.507  8.30E+01       169            1.32E-04 
      3284    40.515  1.62E+02       169            1.31E-04 
      3285    40.522  5.80E+01       169            1.33E-04 
      3286    40.530  2.12E+02       169            1.30E-04 
      3287    40.538  8.70E+01       169            1.33E-04 
      3288    40.546  1.71E+02       169            1.31E-04 
      3289    40.553  1.49E+02       169            1.32E-04 
      3290    40.561  2.00E+02       169            1.31E-04 
      3291    40.569  9.80E+01       169            1.33E-04 
      3292    40.577  6.20E+01       169            1.33E-04 
      3293    40.584  2.28E+02       169            1.31E-04 
      3294    40.592  2.40E+02       169            1.30E-04 
      3295    40.600  6.10E+01       169            1.34E-04 
      3296    40.608  2.19E+02       169            1.31E-04 
      3297    40.616  2.09E+02       169            1.31E-04 
      3298    40.623  2.17E+02       169            1.31E-04 
      3299    40.631  2.14E+02       170            1.31E-04 
      3300    40.639  1.07E+02       170            1.33E-04 
      3301    40.647  1.19E+02       170            1.33E-04 
      3302    40.654  4.20E+01       170            1.34E-04 
      3303    40.662  1.57E+02       170            1.32E-04 
      3304    40.670  3.30E+01       170            1.35E-04 
      3305    40.678  1.70E+02       170            1.32E-04 
      3306    40.685  1.02E+02       170            1.33E-04 
      3307    40.693  3.90E+01       170            1.35E-04 
      3308    40.701  1.92E+02       170            1.32E-04 
      3309    40.709  1.21E+02       170            1.33E-04 
      3310    40.717  7.80E+01       171            1.34E-04 
      3311    40.724  2.13E+02       171            1.32E-04 
      3312    40.732  2.26E+02       171            1.32E-04 
      3313    40.740  1.21E+02       171            1.33E-04 
      3314    40.748 -2.20E+01       171            1.36E-04 
      3315    40.755  1.67E+02       172            1.33E-04 
      3316    40.763  1.42E+02       172            1.33E-04 
      3317    40.771  1.74E+02       172            1.33E-04 
      3318    40.779  2.48E+02       173            1.32E-04 
      3319    40.786  9.10E+01       174            1.34E-04 
      3320    40.794  1.76E+02       174            1.33E-04 
      3321    40.802  2.98E+02       175            1.31E-04 
      3322    40.810  2.29E+02       176            1.32E-04 
      3323    40.818  2.06E+02       177            1.33E-04 
      3324    40.825  1.94E+02       179            1.33E-04 
      3325    40.833  2.94E+02       180            1.31E-04 
      3326    40.841  1.45E+02       181            1.34E-04 
      3327    40.849  1.24E+02       182            1.34E-04 
      3328    40.856  3.38E+02       183            1.31E-04 
      3329    40.864  2.26E+02       183            1.33E-04 
      3330    40.872  2.18E+02       183            1.33E-04 
      3331    40.880  3.28E+02       182            1.31E-04 
      3332    40.887  3.20E+02       182            1.31E-04 
      3333    40.895  2.03E+02       181            1.33E-04 
      3334    40.903  2.77E+02       180            1.32E-04 
      3335    40.911  2.51E+02       179            1.32E-04 
      3336    40.918  1.65E+02       178            1.34E-04 
      3337    40.926  1.24E+02       178            1.35E-04 
      3338    40.934  1.75E+02       177            1.34E-04 
      3339    40.942  1.70E+01       177            1.37E-04 
      3340    40.950  2.68E+02       177            1.32E-04 
      3341    40.957  1.77E+02       177            1.34E-04 
      3342    40.965  1.02E+02       176            1.35E-04 
      3343    40.973  2.36E+02       177            1.33E-04 
      3344    40.981 -1.90E+01       177            1.38E-04 
      3345    40.988  1.95E+02       177            1.34E-04 
      3346    40.996  1.94E+02       177            1.34E-04 
      3347    41.004  1.78E+02       177            1.34E-04 
      3348    41.012  1.82E+02       178            1.34E-04 
      3349    41.019  1.57E+02       178            1.35E-04 
      3350    41.027  7.00E+00       179            1.38E-04 
      3351    41.035  1.91E+02       179            1.34E-04 
      3352    41.043  1.44E+02       179            1.35E-04 
      3353    41.051  2.10E+02       180            1.34E-04 
      3354    41.058  2.67E+02       180            1.33E-04 
      3355    41.066  2.12E+02       181            1.34E-04 
      3356    41.074  9.40E+01       182            1.36E-04 
      3357    41.082  1.76E+02       182            1.35E-04 
      3358    41.089  2.50E+02       183            1.33E-04 
      3359    41.097  1.13E+02       183            1.36E-04 
      3360    41.105  1.78E+02       184            1.35E-04 
      3361    41.113  1.13E+02       185            1.36E-04 
      3362    41.120  9.70E+01       186            1.36E-04 
      3363    41.128  9.90E+01       187            1.36E-04 
      3364    41.136  5.00E+01       188            1.37E-04 
      3365    41.144  1.99E+02       189            1.35E-04 
      3366    41.151  1.60E+02       190            1.35E-04 
      3367    41.159  1.66E+02       191            1.35E-04 
      3368    41.167  2.13E+02       192            1.34E-04 
      3369    41.175  3.06E+02       193            1.33E-04 
      3370    41.183  2.46E+02       195            1.34E-04 
      3371    41.190  1.93E+02       196            1.35E-04 
      3372    41.198  1.44E+02       198            1.36E-04 
      3373    41.206  2.25E+02       209            1.34E-04 
      3374    41.214  5.00E+01       211            1.38E-04 
      3375    41.221  2.27E+02       213            1.34E-04 
      3376    41.229  2.25E+02       215            1.34E-04 
      3377    41.237  1.28E+02       218            1.36E-04 
      3378    41.245  2.35E+02       221            1.34E-04 
      3379    41.252  1.61E+02       224            1.36E-04 
      3380    41.260  1.63E+02       227            1.36E-04 
      3381    41.268  2.22E+02       231            1.35E-04 
      3382    41.276  3.23E+02       234            1.33E-04 
      3383    41.284  2.51E+02       239            1.34E-04 
      3384    41.291  3.19E+02       244            1.33E-04 
      3385    41.299  2.85E+02       249            1.34E-04 
      3386    41.307  1.17E+02       255            1.37E-04 
      3387    41.315  2.41E+02       262            1.34E-04 
      3388    41.322  1.25E+02       270            1.37E-04 
      3389    41.330  2.98E+02       278            1.33E-04 
      3390    41.338 -2.00E+00       289            1.39E-04 
      3391    41.346  2.31E+02       302            1.35E-04 
      3392    41.353  6.90E+01       318            1.38E-04 
      3393    41.361  2.22E+02       339            1.35E-04 
      3394    41.369  2.53E+02       366            1.34E-04 
      3395    41.377  2.85E+02       403            1.34E-04 
      3396    41.384  3.13E+02       454            1.33E-04 
      3397    41.392  3.86E+02       522            1.32E-04 
      3398    41.400  4.38E+02       615            1.31E-04 
      3399    41.408  6.48E+02       737            1.28E-04 
      3400    41.416  6.23E+02       894            1.28E-04 
      3401    41.423  9.21E+02  1.09E+03            1.24E-04 
      3402    41.431  1.11E+03  1.34E+03            1.21E-04 
      3403    41.439  1.45E+03  1.62E+03            1.16E-04 
      3404    41.447  1.74E+03  1.95E+03            1.12E-04 
      3405    41.454  2.11E+03  2.30E+03            1.08E-04 
      3406    41.462  2.54E+03  2.67E+03            1.03E-04 
      3407    41.470  2.90E+03  3.03E+03            9.93E-05 
      3408    41.478  3.07E+03  3.35E+03            9.78E-05 
      3409    41.485  3.20E+03  3.60E+03            9.65E-05 
      3410    41.493  3.39E+03  3.74E+03            9.48E-05 
      3411    41.501  3.42E+03  3.75E+03            9.45E-05 
      3412    41.509  3.34E+03  3.64E+03            9.53E-05 
      3413    41.517  2.92E+03  3.41E+03            9.92E-05 
      3414    41.524  2.78E+03  3.10E+03            1.01E-04 
      3415    41.532  2.12E+03  2.74E+03            1.08E-04 
      3416    41.540  2.17E+03  2.38E+03            1.07E-04 
      3417    41.548  1.74E+03  2.02E+03            1.13E-04 
      3418    41.555  1.51E+03  1.69E+03            1.16E-04 
      3419    41.563  1.23E+03  1.39E+03            1.19E-04 
      3420    41.571  1.06E+03  1.14E+03            1.22E-04 
      3421    41.579  9.82E+02       937            1.23E-04 
      3422    41.586  6.85E+02       773            1.28E-04 
      3423    41.594  5.73E+02       645            1.30E-04 
      3424    41.602  4.60E+02       548            1.32E-04 
      3425    41.610  4.15E+02       476            1.32E-04 
      3426    41.618  3.41E+02       423            1.34E-04 
      3427    41.625  5.96E+02       384            1.29E-04 
      3428    41.633  4.80E+02       355            1.31E-04 
      3429    41.641  4.06E+02       334            1.33E-04 
      3430    41.649  2.53E+02       317            1.35E-04 
      3431    41.656  4.02E+02       304            1.33E-04 
      3432    41.664  2.36E+02       294            1.36E-04 
      3433    41.672  2.07E+02       285            1.36E-04 
      3434    41.680  1.25E+02       278            1.38E-04 
      3435    41.687  1.09E+02       272            1.38E-04 
      3436    41.695  2.44E+02       266            1.36E-04 
      3437    41.703  1.77E+02       262            1.37E-04 
      3438    41.711  1.79E+02       258            1.37E-04 
      3439    41.718  1.65E+02       254            1.37E-04 
      3440    41.726  1.84E+02       251            1.37E-04 
      3441    41.734  1.96E+02       248            1.37E-04 
      3442    41.742  1.10E+02       246            1.39E-04 
      3443    41.750  1.57E+02       244            1.38E-04 
      3444    41.757  7.00E+01       242            1.39E-04 
      3445    41.765  2.84E+02       240            1.35E-04 
      3446    41.773  2.38E+02       239            1.36E-04 
      3447    41.781  1.03E+02       238            1.39E-04 
      3448    41.788  2.27E+02       237            1.37E-04 
      3449    41.796  8.00E+01       236            1.39E-04 
      3450    41.804  1.94E+02       236            1.37E-04 
      3451    41.812  1.92E+02       235            1.37E-04 
      3452    41.819  1.16E+02       235            1.39E-04 
      3453    41.827  1.12E+02       235            1.39E-04 
      3454    41.835  1.28E+02       235            1.39E-04 
      3455    41.843  1.51E+02       235            1.38E-04 
      3456    41.851  1.19E+02       236            1.39E-04 
      3457    41.858  1.89E+02       236            1.38E-04 
      3458    41.866  2.26E+02       237            1.37E-04 
      3459    41.874  1.47E+02       238            1.38E-04 
      3460    41.882  5.40E+01       239            1.40E-04 
      3461    41.889  2.35E+02       240            1.37E-04 
      3462    41.897  6.50E+01       241            1.40E-04 
      3463    41.905  1.33E+02       242            1.39E-04 
      3464    41.913  2.63E+02       244            1.36E-04 
      3465    41.920  7.10E+01       246            1.40E-04 
      3466    41.928  1.52E+02       248            1.39E-04 
      3467    41.936  2.69E+02       250            1.36E-04 
      3468    41.944  1.13E+02       252            1.39E-04 
      3469    41.951  1.85E+02       254            1.38E-04 
      3470    41.959  1.80E+02       257            1.38E-04 
      3471    41.967  1.86E+02       260            1.38E-04 
      3472    41.975  2.53E+02       263            1.37E-04 
      3473    41.983  1.51E+02       266            1.39E-04 
      3474    41.990  1.01E+02       270            1.40E-04 
      3475    41.998  9.60E+01       274            1.40E-04 
      3476    42.006 -4.70E+01       278            1.43E-04 
      3477    42.014  1.24E+02       283            1.39E-04 
      3478    42.021  1.45E+02       288            1.39E-04 
      3479    42.029  7.90E+01       293            1.40E-04 
      3480    42.037  3.20E+01       299            1.41E-04 
      3481    42.045  1.71E+02       305            1.39E-04 
      3482    42.052  2.14E+02       312            1.38E-04 
      3483    42.060  1.53E+02       320            1.39E-04 
      3484    42.068  1.82E+02       328            1.39E-04 
      3485    42.076  1.90E+01       337            1.42E-04 
      3486    42.084  1.60E+02       347            1.39E-04 
      3487    42.091  1.77E+02       357            1.39E-04 
      3488    42.099  1.19E+02       369            1.40E-04 
      3489    42.107  2.35E+02       382            1.38E-04 
      3490    42.115  1.61E+02       396            1.39E-04 
      3491    42.122  7.60E+01       412            1.41E-04 
      3492    42.130  3.96E+02       429            1.35E-04 
      3493    42.138  2.13E+02       448            1.38E-04 
      3494    42.146  1.62E+02       470            1.39E-04 
      3495    42.153  2.91E+02       495            1.37E-04 
      3496    42.161  3.19E+02       524            1.36E-04 
      3497    42.169  3.34E+02       557            1.36E-04 
      3498    42.177  3.52E+02       597            1.36E-04 
      3499    42.185  3.78E+02       646            1.35E-04 
      3500    42.192  3.23E+02       708            1.36E-04 
      3501    42.200  4.53E+02       789            1.34E-04 
      3502    42.208  5.38E+02       896            1.33E-04 
      3503    42.216  8.76E+02  1.04E+03            1.27E-04 
      3504    42.223  7.87E+02  1.24E+03            1.28E-04 
      3505    42.231  1.17E+03  1.51E+03            1.22E-04 
      3506    42.239  1.48E+03  1.87E+03            1.18E-04 
      3507    42.247  1.83E+03  2.34E+03            1.13E-04 
      3508    42.254  2.62E+03  2.95E+03            1.04E-04 
      3509    42.262  3.45E+03  3.71E+03            9.57E-05 
      3510    42.270  4.68E+03  4.62E+03            8.56E-05 
      3511    42.278  6.00E+03  5.70E+03            7.70E-05 
      3512    42.285  7.33E+03  6.91E+03            6.98E-05 
      3513    42.293  8.84E+03  8.22E+03            6.32E-05 
      3514    42.301  1.03E+04  9.56E+03            5.78E-05 
      3515    42.309  1.20E+04  1.09E+04            5.26E-05 
      3516    42.317  1.26E+04  1.20E+04            5.11E-05 
      3517    42.324  1.34E+04  1.28E+04            4.91E-05 
      3518    42.332  1.36E+04  1.33E+04            4.85E-05 
      3519    42.340  1.39E+04  1.32E+04            4.79E-05 
      3520    42.348  1.27E+04  1.27E+04            5.08E-05 
      3521    42.355  1.22E+04  1.19E+04            5.23E-05 
      3522    42.363  1.07E+04  1.07E+04            5.66E-05 
      3523    42.371  9.20E+03  9.40E+03            6.18E-05 
      3524    42.379  8.11E+03  8.06E+03            6.63E-05 
      3525    42.386  6.65E+03  6.76E+03            7.34E-05 
      3526    42.394  5.47E+03  5.56E+03            8.04E-05 
      3527    42.402  4.58E+03  4.51E+03            8.66E-05 
      3528    42.410  3.79E+03  3.61E+03            9.29E-05 
      3529    42.418  3.05E+03  2.87E+03            9.99E-05 
      3530    42.425  2.47E+03  2.28E+03            1.06E-04 
      3531    42.433  2.10E+03  1.82E+03            1.10E-04 
      3532    42.441  1.84E+03  1.47E+03            1.14E-04 
      3533    42.449  1.48E+03  1.22E+03            1.19E-04 
      3534    42.456  1.09E+03  1.03E+03            1.24E-04 
      3535    42.464  8.65E+02       884            1.28E-04 
      3536    42.472  7.79E+02       780            1.29E-04 
      3537    42.480  8.39E+02       702            1.28E-04 
      3538    42.487  5.80E+02       642            1.33E-04 
      3539    42.495  6.40E+02       594            1.32E-04 
      3540    42.503  5.75E+02       555            1.33E-04 
      3541    42.511  6.24E+02       522            1.32E-04 
      3542    42.518  4.72E+02       494            1.35E-04 
      3543    42.526  3.63E+02       469            1.37E-04 
      3544    42.534  4.63E+02       448            1.35E-04 
      3545    42.542  3.08E+02       428            1.38E-04 
      3546    42.550  3.29E+02       411            1.38E-04 
      3547    42.557  3.34E+02       395            1.38E-04 
      3548    42.565  3.26E+02       381            1.38E-04 
      3549    42.573  3.49E+02       368            1.37E-04 
      3550    42.581  2.26E+02       356            1.40E-04 
      3551    42.588  3.57E+02       346            1.37E-04 
      3552    42.596  1.41E+02       336            1.42E-04 
      3553    42.604  2.66E+02       327            1.39E-04 
      3554    42.612  2.25E+02       319            1.40E-04 
      3555    42.619  3.04E+02       311            1.38E-04 
      3556    42.627  2.80E+02       302            1.39E-04 
      3557    42.635  1.08E+02       295            1.42E-04 
      3558    42.643  2.93E+02       289            1.39E-04 
      3559    42.651  2.32E+02       284            1.40E-04 
      3560    42.658  1.72E+02       279            1.41E-04 
      3561    42.666  2.33E+02       274            1.40E-04 
      3562    42.674  2.26E+02       270            1.40E-04 
      3563    42.682  1.56E+02       266            1.42E-04 
      3564    42.689  2.68E+02       262            1.39E-04 
      3565    42.697 -4.00E+00       258            1.45E-04 
      3566    42.705  2.02E+02       255            1.41E-04 
      3567    42.713 -3.90E+01       252            1.46E-04 
      3568    42.720  4.60E+01       249            1.44E-04 
      3569    42.728  9.10E+01       246            1.43E-04 
      3570    42.736  5.00E+01       244            1.44E-04 
      3571    42.744  1.73E+02       241            1.41E-04 
      3572    42.751  1.34E+02       239            1.42E-04 
      3573    42.759  4.50E+01       237            1.44E-04 
      3574    42.767  2.81E+02       235            1.39E-04 
      3575    42.775  7.60E+01       234            1.44E-04 
      3576    42.783  2.41E+02       232            1.40E-04 
      3577    42.790  1.00E+02       230            1.43E-04 
      3578    42.798  1.98E+02       229            1.41E-04 
      3579    42.806  1.13E+02       228            1.43E-04 
      3580    42.814  8.90E+01       226            1.44E-04 
      3581    42.821  2.00E+02       225            1.41E-04 
      3582    42.829  7.20E+01       224            1.44E-04 
      3583    42.837  1.74E+02       223            1.42E-04 
      3584    42.845  4.00E+01       222            1.45E-04 
      3585    42.852  1.30E+01       222            1.45E-04 
      3586    42.860  2.14E+02       221            1.41E-04 
      3587    42.868  5.70E+01       220            1.44E-04 
      3588    42.876  1.59E+02       220            1.42E-04 
      3589    42.884  2.03E+02       220            1.42E-04 
      3590    42.891  6.50E+01       219            1.44E-04 
      3591    42.899  1.97E+02       219            1.42E-04 
      3592    42.907  5.60E+01       219            1.45E-04 
      3593    42.915  1.45E+02       219            1.43E-04 
      3594    42.922  1.24E+02       219            1.43E-04 
      3595    42.930  1.86E+02       219            1.42E-04 
      3596    42.938  8.10E+01       219            1.44E-04 
      3597    42.946  4.80E+01       219            1.45E-04 
      3598    42.953  2.97E+02       219            1.40E-04 
      3599    42.961  2.07E+02       220            1.42E-04 
      3600    42.969  1.91E+02       220            1.42E-04 
      3601    42.977  1.10E+02       240            1.44E-04 
      3602    42.985  2.51E+02       242            1.41E-04 
      3603    42.992  1.42E+02       244            1.44E-04 
      3604    43.000  9.90E+01       247            1.44E-04 
      3605    43.008  6.50E+01       249            1.45E-04 
      3606    43.016  1.68E+02       252            1.43E-04 
      3607    43.023  2.47E+02       255            1.42E-04 
      3608    43.031  2.76E+02       259            1.41E-04 
      3609    43.039  1.86E+02       263            1.43E-04 
      3610    43.047  3.37E+02       268            1.40E-04 
      3611    43.054  3.50E+02       274            1.40E-04 
      3612    43.062  1.14E+02       281            1.45E-04 
      3613    43.070  2.06E+02       290            1.43E-04 
      3614    43.078  8.60E+01       302            1.45E-04 
      3615    43.085  1.80E+02       318            1.43E-04 
      3616    43.093  2.52E+02       339            1.42E-04 
      3617    43.101  3.66E+02       367            1.40E-04 
      3618    43.109  4.16E+02       406            1.39E-04 
      3619    43.117  4.88E+02       458            1.37E-04 
      3620    43.124  4.63E+02       527            1.38E-04 
      3621    43.132  5.90E+02       617            1.36E-04 
      3622    43.140  8.91E+02       732            1.30E-04 
      3623    43.148  9.82E+02       875            1.29E-04 
      3624    43.155  9.72E+02  1.05E+03            1.29E-04 
      3625    43.163  1.34E+03  1.25E+03            1.23E-04 
      3626    43.171  1.47E+03  1.49E+03            1.21E-04 
      3627    43.179  1.97E+03  1.74E+03            1.14E-04 
      3628    43.186  2.15E+03  2.02E+03            1.12E-04 
      3629    43.194  2.56E+03  2.30E+03            1.07E-04 
      3630    43.202  2.93E+03  2.58E+03            1.03E-04 
      3631    43.210  3.07E+03  2.83E+03            1.02E-04 
      3632    43.218  3.35E+03  3.06E+03            9.89E-05 
      3633    43.225  3.35E+03  3.23E+03            9.90E-05 
      3634    43.233  3.73E+03  3.36E+03            9.54E-05 
      3635    43.241  3.52E+03  3.42E+03            9.73E-05 
      3636    43.249  3.57E+03  3.44E+03            9.69E-05 
      3637    43.256  3.58E+03  3.43E+03            9.69E-05 
      3638    43.264  3.39E+03  3.41E+03            9.88E-05 
      3639    43.272  3.63E+03  3.41E+03            9.65E-05 
      3640    43.280  3.65E+03  3.44E+03            9.62E-05 
      3641    43.287  3.73E+03  3.54E+03            9.56E-05 
      3642    43.295  4.12E+03  3.72E+03            9.22E-05 
      3643    43.303  4.56E+03  3.97E+03            8.86E-05 
      3644    43.311  5.01E+03  4.29E+03            8.52E-05 
      3645    43.318  5.22E+03  4.67E+03            8.38E-05 
      3646    43.326  5.66E+03  5.06E+03            8.08E-05 
      3647    43.334  5.96E+03  5.44E+03            7.89E-05 
      3648    43.342  6.08E+03  5.74E+03            7.81E-05 
      3649    43.350  5.89E+03  5.91E+03            7.94E-05 
      3650    43.357  5.76E+03  5.92E+03            8.02E-05 
      3651    43.365  5.52E+03  5.74E+03            8.18E-05 
      3652    43.373  5.06E+03  5.40E+03            8.50E-05 
      3653    43.381  4.63E+03  4.93E+03            8.82E-05 
      3654    43.388  3.99E+03  4.39E+03            9.35E-05 
      3655    43.396  3.46E+03  3.81E+03            9.84E-05 
      3656    43.404  2.74E+03  3.25E+03            1.06E-04 
      3657    43.412  2.71E+03  2.72E+03            1.06E-04 
      3658    43.419  2.08E+03  2.24E+03            1.14E-04 
      3659    43.427  1.57E+03  1.83E+03            1.21E-04 
      3660    43.435  1.49E+03  1.48E+03            1.22E-04 
      3661    43.443  1.46E+03  1.20E+03            1.23E-04 
      3662    43.451  9.04E+02       982            1.32E-04 
      3663    43.458  8.86E+02       812            1.32E-04 
      3664    43.466  8.63E+02       675            1.33E-04 
      3665    43.474  6.90E+02       580            1.36E-04 
      3666    43.482  6.22E+02       509            1.37E-04 
      3667    43.489  6.29E+02       437            1.37E-04 
      3668    43.497  4.85E+02       399            1.40E-04 
      3669    43.505  4.25E+02       370            1.41E-04 
      3670    43.513  5.84E+02       347            1.38E-04 
      3671    43.520  3.84E+02       329            1.42E-04 
      3672    43.528  4.40E+02       313            1.41E-04 
      3673    43.536  3.57E+02       300            1.43E-04 
      3674    43.544  3.34E+02       289            1.43E-04 
      3675    43.551  2.97E+02       279            1.44E-04 
      3676    43.559  2.79E+02       271            1.44E-04 
      3677    43.567  3.97E+02       263            1.42E-04 
      3678    43.575  3.57E+02       256            1.43E-04 
      3679    43.583  3.08E+02       249            1.44E-04 
      3680    43.590  2.40E+02       244            1.45E-04 
      3681    43.598  1.36E+02       238            1.48E-04 
      3682    43.606  1.83E+02       234            1.47E-04 
      3683    43.614  2.10E+02       229            1.46E-04 
      3684    43.621  1.77E+02       225            1.47E-04 
      3685    43.629  1.18E+02       221            1.48E-04 
      3686    43.637  4.02E+02       218            1.42E-04 
      3687    43.645  1.04E+02       215            1.49E-04 
      3688    43.652  8.40E+01       212            1.49E-04 
      3689    43.660  1.04E+02       209            1.49E-04 
      3690    43.668  2.34E+02       206            1.46E-04 
      3691    43.676  2.33E+02       204            1.46E-04 
      3692    43.684  2.17E+02       202            1.47E-04 
      3693    43.691  1.58E+02       200            1.48E-04 
      3694    43.699  2.73E+02       198            1.45E-04 
      3695    43.707  1.34E+02       196            1.49E-04 
      3696    43.715  1.10E+02       194            1.49E-04 
      3697    43.722  3.47E+02       193            1.44E-04 
      3698    43.730  1.99E+02       191            1.47E-04 
      3699    43.738  6.80E+01       190            1.50E-04 
      3700    43.746  1.88E+02       189            1.48E-04 
      3701    43.753  9.20E+01       187            1.50E-04 
      3702    43.761  2.56E+02       186            1.46E-04 
      3703    43.769  1.91E+02       185            1.48E-04 
      3704    43.777  4.50E+01       184            1.51E-04 
      3705    43.785  7.70E+01       183            1.50E-04 
      3706    43.792  1.64E+02       182            1.48E-04 
      3707    43.800  1.31E+02       181            1.49E-04 
      3708    43.808  1.25E+02       180            1.49E-04 
      3709    43.816  2.20E+02       179            1.47E-04 
      3710    43.823  1.67E+02       179            1.49E-04 
      3711    43.831  1.22E+02       178            1.50E-04 
      3712    43.839  1.60E+02       177            1.49E-04 
      3713    43.847  1.51E+02       176            1.49E-04 
      3714    43.854  2.16E+02       176            1.48E-04 
      3715    43.862  7.40E+01       175            1.51E-04 
      3716    43.870  1.01E+02       175            1.50E-04 
      3717    43.878  4.10E+01       174            1.52E-04 
      3718    43.885  5.90E+01       173            1.51E-04 
      3719    43.893  1.03E+02       173            1.51E-04 
      3720    43.901  1.05E+02       172            1.51E-04 
      3721    43.909  3.60E+01       172            1.52E-04 
      3722    43.917  1.72E+02       171            1.49E-04 
      3723    43.924  6.70E+01       171            1.52E-04 
      3724    43.932  1.43E+02       171            1.50E-04 
      3725    43.940  1.79E+02       170            1.49E-04 
      3726    43.948  1.90E+01       170            1.53E-04 
      3727    43.955  7.70E+01       169            1.52E-04 
      3728    43.963  3.07E+02       169            1.47E-04 
      3729    43.971 -8.60E+01       169            1.56E-04 
      3730    43.979  2.20E+01       168            1.53E-04 
      3731    43.986  2.19E+02       168            1.49E-04 
      3732    43.994  2.30E+02       168            1.48E-04 
      3733    44.002  2.53E+02       167            1.48E-04 
      3734    44.010  1.10E+02       167            1.51E-04 
      3735    44.018  6.50E+01       167            1.52E-04 
      3736    44.025  1.45E+02       166            1.51E-04 
      3737    44.033  1.49E+02       166            1.50E-04 
      3738    44.041  9.70E+01       166            1.52E-04 
      3739    44.049  1.24E+02       166            1.51E-04 
      3740    44.056  9.90E+01       165            1.52E-04 
      3741    44.064  1.27E+02       165            1.51E-04 
      3742    44.072  6.10E+01       165            1.53E-04 
      3743    44.080  1.69E+02       165            1.50E-04 
      3744    44.087  1.30E+02       164            1.51E-04 
      3745    44.095  1.22E+02       164            1.52E-04 
      3746    44.103  6.90E+01       164            1.53E-04 
      3747    44.111  3.50E+01       164            1.54E-04 
      3748    44.118  2.80E+02       164            1.48E-04 
      3749    44.126  2.60E+01       163            1.54E-04 
      3750    44.134  1.74E+02       163            1.51E-04 
      3751    44.142  1.40E+01       163            1.54E-04 
      3752    44.150  1.26E+02       163            1.52E-04 
      3753    44.157  2.38E+02       163            1.49E-04 
      3754    44.165  1.78E+02       162            1.51E-04 
      3755    44.173  2.29E+02       162            1.50E-04 
      3756    44.181  1.35E+02       162            1.52E-04 
      3757    44.188  6.20E+01       162            1.54E-04 
      3758    44.196  2.47E+02       162            1.49E-04 
      3759    44.204  9.30E+01       162            1.53E-04 
      3760    44.212  1.15E+02       161            1.53E-04 
      3761    44.219  2.40E+02       161            1.50E-04 
      3762    44.227  2.81E+02       161            1.49E-04 
      3763    44.235  2.55E+02       161            1.50E-04 
      3764    44.243  1.47E+02       161            1.52E-04 
      3765    44.251  1.01E+02       161            1.53E-04 
      3766    44.258  1.99E+02       161            1.51E-04 
      3767    44.266  4.30E+01       160            1.55E-04 
      3768    44.274  1.70E+02       160            1.52E-04 
      3769    44.282  1.68E+02       160            1.52E-04 
      3770    44.289  2.79E+02       160            1.49E-04 
      3771    44.297  1.76E+02       160            1.52E-04 
      3772    44.305  1.44E+02       160            1.53E-04 
      3773    44.313  2.22E+02       160            1.51E-04 
      3774    44.320  1.71E+02       160            1.52E-04 
      3775    44.328  1.56E+02       160            1.52E-04 
      3776    44.336  1.31E+02       159            1.53E-04 
      3777    44.344  9.80E+01       159            1.54E-04 
      3778    44.351  2.15E+02       159            1.51E-04 
      3779    44.359  6.90E+01       159            1.55E-04 
      3780    44.367  2.42E+02       159            1.51E-04 
      3781    44.375  1.42E+02       159            1.53E-04 
      3782    44.383  1.82E+02       159            1.52E-04 
      3783    44.390  2.16E+02       159            1.52E-04 
      3784    44.398  1.42E+02       159            1.53E-04 
      3785    44.406  2.29E+02       158            1.51E-04 
      3786    44.414  1.55E+02       158            1.53E-04 
      3787    44.421  1.34E+02       158            1.54E-04 
      3788    44.429 -1.30E+01       158            1.57E-04 
      3789    44.437  2.70E+01       158            1.56E-04 
      3790    44.445  2.09E+02       158            1.52E-04 
      3791    44.452  1.96E+02       158            1.52E-04 
      3792    44.460  3.70E+01       158            1.56E-04 
      3793    44.468  1.39E+02       158            1.54E-04 
      3794    44.476  1.83E+02       158            1.53E-04 
      3795    44.484  8.80E+01       154            1.55E-04 
      3796    44.491  1.35E+02       154            1.54E-04 
      3797    44.499  1.20E+02       154            1.54E-04 
      3798    44.507  1.14E+02       154            1.55E-04 
      3799    44.515  1.10E+02       154            1.55E-04 
      3800    44.522  1.16E+02       154            1.55E-04 
      3801    44.530  7.10E+01       154            1.56E-04 
      3802    44.538  2.16E+02       154            1.52E-04 
      3803    44.546  2.57E+02       153            1.51E-04 
      3804    44.553  6.80E+01       153            1.56E-04 
      3805    44.561  1.64E+02       153            1.54E-04 
      3806    44.569  2.41E+02       153            1.52E-04 
      3807    44.577  1.04E+02       153            1.55E-04 
      3808    44.585  2.43E+02       153            1.52E-04 
      3809    44.592  1.22E+02       153            1.55E-04 
      3810    44.600  1.50E+02       153            1.54E-04 
      3811    44.608  2.53E+02       153            1.52E-04 
      3812    44.616  1.68E+02       153            1.54E-04 
      3813    44.623  9.20E+01       153            1.56E-04 
      3814    44.631  1.87E+02       153            1.53E-04 
      3815    44.639  8.60E+01       153            1.56E-04 
      3816    44.647  1.26E+02       153            1.55E-04 
      3817    44.654  1.01E+02       153            1.56E-04 
      3818    44.662  1.58E+02       153            1.54E-04 
      3819    44.670  3.90E+01       153            1.57E-04 
      3820    44.678  1.81E+02       153            1.54E-04 
      3821    44.685  1.21E+02       153            1.55E-04 
      3822    44.693  2.06E+02       153            1.53E-04 
      3823    44.701  1.17E+02       153            1.56E-04 
      3824    44.709  3.12E+02       153            1.51E-04 
      3825    44.717  2.01E+02       153            1.54E-04 
      3826    44.724  2.70E+01       153            1.58E-04 
      3827    44.732 -8.70E+01       153            1.61E-04 
      3828    44.740  2.14E+02       153            1.53E-04 
      3829    44.748  5.00E+01       153            1.57E-04 
      3830    44.755  1.59E+02       153            1.55E-04 
      3831    44.763  2.84E+02       153            1.52E-04 
      3832    44.771  1.19E+02       153            1.56E-04 
      3833    44.779  2.97E+02       153            1.52E-04 
      3834    44.786  4.60E+01       153            1.58E-04 
      3835    44.794  9.20E+01       153            1.57E-04 
      3836    44.802  9.50E+01       153            1.57E-04 
      3837    44.810  2.27E+02       153            1.53E-04 
      3838    44.818  6.10E+01       153            1.58E-04 
      3839    44.825  3.00E+01       153            1.58E-04 
      3840    44.833  1.53E+02       152            1.55E-04 
      3841    44.841  7.30E+01       152            1.57E-04 
      3842    44.849  1.14E+02       152            1.56E-04 
      3843    44.856  2.59E+02       152            1.53E-04 
      3844    44.864  8.50E+01       152            1.57E-04 
      3845    44.872  1.68E+02       152            1.55E-04 
      3846    44.880  2.22E+02       152            1.54E-04 
      3847    44.887  1.26E+02       152            1.56E-04 
      3848    44.895  8.60E+01       152            1.57E-04 
      3849    44.903  1.52E+02       152            1.56E-04 
      3850    44.911  7.50E+01       152            1.58E-04 
      3851    44.918  1.38E+02       152            1.56E-04 
      3852    44.926  1.32E+02       152            1.56E-04 
      3853    44.934  4.30E+01       152            1.59E-04 
      3854    44.942  2.28E+02       152            1.54E-04 
      3855    44.950  2.05E+02       152            1.55E-04 
      3856    44.957  2.30E+02       152            1.54E-04 
      3857    44.965  9.40E+01       152            1.57E-04 
      3858    44.973  2.17E+02       152            1.55E-04 
      3859    44.981  1.33E+02       152            1.57E-04 
      3860    44.988  2.17E+02       152            1.55E-04 
      3861    44.996  1.37E+02       152            1.57E-04 
      3862    45.004  2.58E+02       152            1.54E-04 
      3863    45.012  2.29E+02       152            1.54E-04 
      3864    45.019  2.69E+02       152            1.53E-04 
      3865    45.027  2.78E+02       152            1.53E-04 
      3866    45.035  1.31E+02       152            1.57E-04 
      3867    45.043 -3.50E+01       152            1.61E-04 
      3868    45.051  1.51E+02       152            1.56E-04 
      3869    45.058  1.13E+02       152            1.57E-04 
      3870    45.066  2.30E+01       152            1.60E-04 
      3871    45.074  1.90E+02       152            1.56E-04 
      3872    45.082  1.23E+02       152            1.57E-04 
      3873    45.089  9.50E+01       152            1.58E-04 
      3874    45.097  1.64E+02       152            1.56E-04 
      3875    45.105  1.77E+02       152            1.56E-04 
      3876    45.113  2.36E+02       152            1.55E-04 
      3877    45.120  1.87E+02       151            1.56E-04 
      3878    45.128  2.27E+02       151            1.55E-04 
      3879    45.136  6.00E+01       151            1.59E-04 
      3880    45.144  9.70E+01       151            1.58E-04 
      3881    45.151  2.18E+02       151            1.55E-04 
      3882    45.159  8.00E+00       151            1.61E-04 
      3883    45.167  9.90E+01       151            1.58E-04 
      3884    45.175  1.18E+02       151            1.58E-04 
      3885    45.183  6.80E+01       151            1.59E-04 
      3886    45.190  1.30E+02       151            1.58E-04 
      3887    45.198  2.05E+02       151            1.56E-04 
      3888    45.206  2.22E+02       151            1.56E-04 
      3889    45.214  8.30E+01       151            1.59E-04 
      3890    45.221  1.62E+02       151            1.57E-04 
      3891    45.229  1.25E+02       151            1.58E-04 
      3892    45.237  3.45E+02       151            1.53E-04 
      3893    45.245  2.85E+02       151            1.54E-04 
      3894    45.252  1.15E+02       151            1.58E-04 
      3895    45.260  2.05E+02       151            1.56E-04 
      3896    45.268  1.61E+02       151            1.57E-04 
      3897    45.276  1.50E+02       151            1.58E-04 
      3898    45.284 -1.50E+01       151            1.62E-04 
      3899    45.291  1.89E+02       151            1.57E-04 
      3900    45.299  1.97E+02       151            1.57E-04 
      3901    45.307  9.20E+01       151            1.59E-04 
      3902    45.315  1.56E+02       151            1.58E-04 
      3903    45.322  1.66E+02       151            1.58E-04 
      3904    45.330  1.57E+02       151            1.58E-04 
      3905    45.338  1.89E+02       151            1.57E-04 
      3906    45.346  1.97E+02       151            1.57E-04 
      3907    45.353  2.00E+02       151            1.57E-04 
      3908    45.361  1.62E+02       151            1.58E-04 
      3909    45.369  7.30E+01       151            1.60E-04 
      3910    45.377  8.80E+01       151            1.60E-04 
      3911    45.385  1.00E+02       151            1.60E-04 
      3912    45.392  2.28E+02       152            1.56E-04 
      3913    45.400  5.20E+01       152            1.61E-04 
      3914    45.408  2.28E+02       152            1.56E-04 
      3915    45.416  1.56E+02       152            1.58E-04 
      3916    45.423  2.12E+02       152            1.57E-04 
      3917    45.431  1.61E+02       152            1.58E-04 
      3918    45.439  1.60E+01       152            1.62E-04 
      3919    45.447  3.42E+02       152            1.54E-04 
      3920    45.454  2.55E+02       152            1.56E-04 
      3921    45.462  2.56E+02       152            1.56E-04 
      3922    45.470  5.70E+01       152            1.61E-04 
      3923    45.478  7.10E+01       152            1.61E-04 
      3924    45.485  2.73E+02       152            1.56E-04 
      3925    45.493  1.48E+02       152            1.59E-04 
      3926    45.501  8.60E+01       152            1.61E-04 
      3927    45.509  9.30E+01       152            1.60E-04 
      3928    45.517  1.26E+02       152            1.60E-04 
      3929    45.524  2.31E+02       152            1.57E-04 
      3930    45.532  8.50E+01       152            1.61E-04 
      3931    45.540  1.09E+02       152            1.60E-04 
      3932    45.548  1.10E+02       152            1.60E-04 
      3933    45.555  3.03E+02       152            1.55E-04 
      3934    45.563  2.16E+02       152            1.58E-04 
      3935    45.571  1.88E+02       152            1.58E-04 
      3936    45.579  1.77E+02       153            1.59E-04 
      3937    45.586 -1.10E+01       153            1.64E-04 
      3938    45.594  2.28E+02       153            1.57E-04 
      3939    45.602  6.10E+01       153            1.62E-04 
      3940    45.610  7.40E+01       153            1.61E-04 
      3941    45.618  8.00E+00       153            1.63E-04 
      3942    45.625  2.89E+02       153            1.56E-04 
      3943    45.633  5.30E+01       153            1.62E-04 
      3944    45.641  1.30E+02       153            1.60E-04 
      3945    45.649  2.17E+02       153            1.58E-04 
      3946    45.656  1.29E+02       153            1.60E-04 
      3947    45.664  2.02E+02       153            1.58E-04 
      3948    45.672  3.11E+02       153            1.56E-04 
      3949    45.680  2.01E+02       153            1.59E-04 
      3950    45.687  1.35E+02       153            1.60E-04 
      3951    45.695  1.36E+02       153            1.60E-04 
      3952    45.703  1.63E+02       153            1.60E-04 
      3953    45.711  1.97E+02       153            1.59E-04 
      3954    45.718 -5.00E+00       153            1.64E-04 
      3955    45.726  1.90E+02       153            1.59E-04 
      3956    45.734  1.21E+02       153            1.61E-04 
      3957    45.742  9.20E+01       153            1.62E-04 
      3958    45.750  3.40E+01       153            1.63E-04 
      3959    45.757  5.20E+01       153            1.63E-04 
      3960    45.765  2.59E+02       153            1.58E-04 
      3961    45.773  1.96E+02       153            1.59E-04 
      3962    45.781  1.04E+02       153            1.62E-04 
      3963    45.788  1.81E+02       153            1.60E-04 
      3964    45.796  1.14E+02       154            1.61E-04 
      3965    45.804  2.47E+02       154            1.58E-04 
      3966    45.812  1.59E+02       154            1.60E-04 
      3967    45.819  2.37E+02       154            1.58E-04 
      3968    45.827  2.43E+02       154            1.58E-04 
      3969    45.835  1.57E+02       154            1.61E-04 
      3970    45.843  1.21E+02       154            1.61E-04 
      3971    45.851  2.31E+02       155            1.59E-04 
      3972    45.858  2.86E+02       155            1.57E-04 
      3973    45.866  5.50E+01       155            1.63E-04 
      3974    45.874  1.70E+02       155            1.60E-04 
      3975    45.882  1.66E+02       155            1.61E-04 
      3976    45.889  1.06E+02       156            1.62E-04 
      3977    45.897  3.52E+02       156            1.56E-04 
      3978    45.905  1.82E+02       156            1.60E-04 
      3979    45.913  1.71E+02       157            1.61E-04 
      3980    45.920  1.08E+02       157            1.62E-04 
      3981    45.928  1.03E+02       158            1.62E-04 
      3982    45.936  1.42E+02       159            1.61E-04 
      3983    45.944  1.62E+02       161            1.61E-04 
      3984    45.951  1.52E+02       163            1.61E-04 
      3985    45.959  2.50E+02       165            1.59E-04 
      3986    45.967  1.06E+02       167            1.63E-04 
      3987    45.975  2.58E+02       170            1.59E-04 
      3988    45.983  1.98E+02       174            1.60E-04 
      3989    45.990  1.78E+02       178            1.61E-04 
      3990    45.998  1.31E+02       182            1.62E-04 
      3991    46.006  1.78E+02       187            1.61E-04 
      3992    46.014  2.42E+02       191            1.59E-04 
      3993    46.021  2.03E+02       195            1.60E-04 
      3994    46.029  9.70E+01       199            1.63E-04 
      3995    46.037  2.09E+02       203            1.60E-04 
      3996    46.045  2.43E+02       205            1.59E-04 
      3997    46.052  2.58E+02       206            1.59E-04 
      3998    46.060  1.88E+02       206            1.61E-04 
      3999    46.068  1.44E+02       205            1.62E-04 
      4000    46.076  2.43E+02       203            1.60E-04 
      4001    46.084  1.24E+02       200            1.63E-04 
      4002    46.091  6.20E+01       197            1.64E-04 
      4003    46.099  1.35E+02       193            1.63E-04 
      4004    46.107  2.34E+02       189            1.60E-04 
      4005    46.115  1.83E+02       185            1.61E-04 
      4006    46.122  2.28E+02       182            1.60E-04 
      4007    46.130  9.30E+01       179            1.64E-04 
      4008    46.138  1.76E+02       176            1.62E-04 
      4009    46.146  2.04E+02       174            1.61E-04 
      4010    46.153  2.87E+02       173            1.59E-04 
      4011    46.161  2.77E+02       171            1.59E-04 
      4012    46.169  3.08E+02       171            1.58E-04 
      4013    46.177  1.60E+01       170            1.66E-04 
      4014    46.185  2.01E+02       170            1.61E-04 
      4015    46.192  1.57E+02       171            1.62E-04 
      4016    46.200  9.50E+01       171            1.64E-04 
      4017    46.208  1.47E+02       172            1.63E-04 
      4018    46.216  1.58E+02       173            1.63E-04 
      4019    46.223  1.82E+02       174            1.62E-04 
      4020    46.231  1.95E+02       175            1.62E-04 
      4021    46.239  1.23E+02       176            1.64E-04 
      4022    46.247  3.01E+02       177            1.59E-04 
      4023    46.254  9.80E+01       179            1.64E-04 
      4024    46.262  2.01E+02       181            1.62E-04 
      4025    46.270  1.06E+02       183            1.64E-04 
      4026    46.278  1.51E+02       185            1.63E-04 
      4027    46.285  1.46E+02       187            1.63E-04 
      4028    46.293  2.48E+02       189            1.61E-04 
      4029    46.301  3.29E+02       192            1.59E-04 
      4030    46.309  2.86E+02       195            1.60E-04 
      4031    46.317  3.31E+02       198            1.59E-04 
      4032    46.324  2.13E+02       202            1.62E-04 
      4033    46.332  1.69E+02       206            1.63E-04 
      4034    46.340  2.21E+02       211            1.62E-04 
      4035    46.348  2.35E+02       216            1.61E-04 
      4036    46.355  2.64E+02       223            1.61E-04 
      4037    46.363  2.14E+02       231            1.62E-04 
      4038    46.371  1.08E+02       240            1.65E-04 
      4039    46.379  2.32E+02       252            1.62E-04 
      4040    46.386 -2.30E+01       268            1.69E-04 
      4041    46.394  2.44E+02       289            1.61E-04 
      4042    46.402  2.58E+02       317            1.61E-04 
      4043    46.410  2.85E+02       355            1.60E-04 
      4044    46.418  2.61E+02       406            1.61E-04 
      4045    46.425  4.27E+02       473            1.57E-04 
      4046    46.433  6.06E+02       561            1.53E-04 
      4047    46.441  5.90E+02       672            1.53E-04 
      4048    46.449  8.39E+02       810            1.47E-04 
      4049    46.456  8.14E+02       975            1.48E-04 
      4050    46.464  1.26E+03  1.17E+03            1.39E-04 
      4051    46.472  1.37E+03  1.39E+03            1.37E-04 
      4052    46.480  1.65E+03  1.62E+03            1.32E-04 
      4053    46.487  1.90E+03  1.87E+03            1.28E-04 
      4054    46.495  2.25E+03  2.11E+03            1.22E-04 
      4055    46.503  2.42E+03  2.32E+03            1.20E-04 
      4056    46.511  2.51E+03  2.50E+03            1.19E-04 
      4057    46.518  2.65E+03  2.61E+03            1.17E-04 
      4058    46.526  2.67E+03  2.64E+03            1.16E-04 
      4059    46.534  2.58E+03  2.58E+03            1.18E-04 
      4060    46.542  2.50E+03  2.45E+03            1.19E-04 
      4061    46.550  2.26E+03  2.27E+03            1.22E-04 
      4062    46.557  2.00E+03  2.04E+03            1.26E-04 
      4063    46.565  1.87E+03  1.80E+03            1.28E-04 
      4064    46.573  1.68E+03  1.55E+03            1.32E-04 
      4065    46.581  1.30E+03  1.32E+03            1.39E-04 
      4066    46.588  1.27E+03  1.11E+03            1.39E-04 
      4067    46.596  8.85E+02       925            1.47E-04 
      4068    46.604  9.48E+02       767            1.46E-04 
      4069    46.612  6.61E+02       637            1.52E-04 
      4070    46.619  5.04E+02       533            1.56E-04 
      4071    46.627  5.39E+02       451            1.55E-04 
      4072    46.635  3.94E+02       389            1.59E-04 
      4073    46.643  4.96E+02       342            1.56E-04 
      4074    46.651  4.39E+02       307            1.58E-04 
      4075    46.658  3.80E+02       282            1.59E-04 
      4076    46.666  3.73E+02       262            1.59E-04 
      4077    46.674  2.10E+02       247            1.64E-04 
      4078    46.682  3.10E+02       236            1.61E-04 
      4079    46.689  3.77E+02       227            1.59E-04 
      4080    46.697  5.01E+02       220            1.56E-04 
      4081    46.705  2.56E+02       213            1.63E-04 
      4082    46.713  2.05E+02       208            1.64E-04 
      4083    46.720  4.27E+02       203            1.58E-04 
      4084    46.728  3.33E+02       199            1.61E-04 
      4085    46.736  1.50E+02       196            1.66E-04 
      4086    46.744  1.25E+02       192            1.66E-04 
      4087    46.751  1.68E+02       189            1.65E-04 
      4088    46.759  1.93E+02       186            1.65E-04 
      4089    46.767  3.04E+02       184            1.62E-04 
      4090    46.775  1.70E+02       182            1.65E-04 
      4091    46.783  3.57E+02       180            1.61E-04 
      4092    46.790  2.29E+02       178            1.64E-04 
      4093    46.798  2.22E+02       176            1.64E-04 
      4094    46.806  1.93E+02       174            1.65E-04 
      4095    46.814  2.72E+02       173            1.63E-04 
      4096    46.821  3.13E+02       171            1.62E-04 
      4097    46.829  3.10E+02       170            1.62E-04 
      4098    46.837  2.11E+02       169            1.65E-04 
      4099    46.845  1.02E+02       168            1.68E-04 
      4100    46.852  8.00E+01       167            1.68E-04 
      4101    46.860  1.82E+02       166            1.66E-04 
      4102    46.868  3.20E+02       165            1.62E-04 
      4103    46.876 -1.70E+01       164            1.71E-04 
      4104    46.884  2.54E+02       163            1.64E-04 
      4105    46.891  3.86E+02       162            1.60E-04 
      4106    46.899  1.83E+02       162            1.66E-04 
      4107    46.907  1.41E+02       161            1.67E-04 
      4108    46.915  1.78E+02       160            1.66E-04 
      4109    46.922  2.58E+02       160            1.64E-04 
      4110    46.930  8.90E+01       159            1.69E-04 
      4111    46.938  1.85E+02       159            1.66E-04 
      4112    46.946  2.23E+02       158            1.65E-04 
      4113    46.953  2.90E+02       158            1.63E-04 
      4114    46.961 -3.20E+01       157            1.72E-04 
      4115    46.969  3.10E+01       157            1.70E-04 
      4116    46.977  1.75E+02       156            1.66E-04 
      4117    46.985  1.38E+02       156            1.68E-04 
      4118    46.992  1.33E+02       156            1.68E-04 
      4119    47.000  1.65E+02       155            1.67E-04 
      4120    47.008  1.48E+02       155            1.67E-04 
      4121    47.016  2.38E+02       155            1.65E-04 
      4122    47.023  1.77E+02       154            1.67E-04 
      4123    47.031  1.72E+02       154            1.67E-04 
      4124    47.039  7.50E+01       154            1.70E-04 
      4125    47.047  1.09E+02       153            1.69E-04 
      4126    47.054  1.21E+02       153            1.68E-04 
      4127    47.062  1.58E+02       153            1.67E-04 
      4128    47.070  3.37E+02       153            1.63E-04 
      4129    47.078  1.40E+02       152            1.68E-04 
      4130    47.085  9.60E+01       152            1.69E-04 
      4131    47.093  1.74E+02       152            1.67E-04 
      4132    47.101  1.34E+02       153            1.68E-04 
      4133    47.109  8.20E+01       153            1.70E-04 
      4134    47.117  7.00E+00       153            1.72E-04 
      4135    47.124  1.33E+02       153            1.69E-04 
      4136    47.132  1.77E+02       153            1.67E-04 
      4137    47.140  1.49E+02       152            1.68E-04 
      4138    47.148  1.01E+02       152            1.70E-04 
      4139    47.155  2.48E+02       152            1.66E-04 
      4140    47.163  1.50E+02       152            1.68E-04 
      4141    47.171  1.20E+02       152            1.69E-04 
      4142    47.179  1.85E+02       152            1.67E-04 
      4143    47.186  1.35E+02       152            1.69E-04 
      4144    47.194  2.96E+02       151            1.64E-04 
      4145    47.202  7.90E+01       151            1.71E-04 
      4146    47.210  1.28E+02       151            1.69E-04 
      4147    47.218  8.80E+01       151            1.70E-04 
      4148    47.225  2.61E+02       151            1.66E-04 
      4149    47.233  1.56E+02       151            1.69E-04 
      4150    47.241 -4.60E+01       151            1.75E-04 
      4151    47.249  1.47E+02       151            1.69E-04 
      4152    47.256  2.21E+02       151            1.67E-04 
      4153    47.264  1.03E+02       150            1.70E-04 
      4154    47.272  7.30E+01       150            1.71E-04 
      4155    47.280  4.40E+01       150            1.72E-04 
      4156    47.287  3.20E+02       150            1.64E-04 
      4157    47.295  2.02E+02       150            1.68E-04 
      4158    47.303  1.98E+02       150            1.68E-04 
      4159    47.311  6.40E+01       150            1.72E-04 
      4160    47.318  8.20E+01       150            1.71E-04 
      4161    47.326  8.50E+01       150            1.71E-04 
      4162    47.334  9.40E+01       150            1.71E-04 
      4163    47.342  1.88E+02       150            1.68E-04 
      4164    47.350  2.41E+02       150            1.67E-04 
      4165    47.357  2.15E+02       150            1.68E-04 
      4166    47.365  2.05E+02       150            1.68E-04 
      4167    47.373  1.56E+02       150            1.69E-04 
      4168    47.381  1.10E+02       150            1.71E-04 
      4169    47.388  2.09E+02       150            1.68E-04 
      4170    47.396  4.60E+01       150            1.73E-04 
      4171    47.404  1.21E+02       150            1.71E-04 
      4172    47.412  1.39E+02       150            1.70E-04 
      4173    47.419  1.31E+02       150            1.70E-04 
      4174    47.427  3.21E+02       149            1.65E-04 
      4175    47.435  2.43E+02       149            1.67E-04 
      4176    47.443 -7.00E+00       149            1.75E-04 
      4177    47.451  3.01E+02       149            1.66E-04 
      4178    47.458  2.80E+01       149            1.74E-04 
      4179    47.466  1.39E+02       149            1.70E-04 
      4180    47.474  1.21E+02       149            1.71E-04 
      4181    47.482  1.91E+02       149            1.69E-04 
      4182    47.489  1.92E+02       149            1.69E-04 
      4183    47.497  2.21E+02       149            1.68E-04 
      4184    47.505  1.93E+02       149            1.69E-04 
      4185    47.513 -8.10E+01       150            1.77E-04 
      4186    47.520  1.13E+02       150            1.72E-04 
      4187    47.528  1.63E+02       150            1.70E-04 
      4188    47.536  3.04E+02       150            1.66E-04 
      4189    47.544  1.58E+02       150            1.70E-04 
      4190    47.551  3.35E+02       150            1.65E-04 
      4191    47.559  2.15E+02       150            1.69E-04 
      4192    47.567  1.76E+02       150            1.70E-04 
      4193    47.575  1.44E+02       150            1.71E-04 
      4194    47.583  1.36E+02       150            1.71E-04 
      4195    47.590  2.64E+02       150            1.68E-04 
      4196    47.598  1.74E+02       150            1.70E-04 
      4197    47.606  2.35E+02       150            1.68E-04 
      4198    47.614  1.64E+02       150            1.71E-04 
      4199    47.621  1.19E+02       150            1.72E-04 
      4200    47.629  2.40E+02       150            1.68E-04 
      4201    47.637  1.98E+02       150            1.70E-04 
      4202    47.645  2.06E+02       151            1.69E-04 
      4203    47.652  2.38E+02       149            1.69E-04 
      4204    47.660  1.24E+02       149            1.72E-04 
      4205    47.668  2.08E+02       149            1.70E-04 
      4206    47.676  2.70E+01       149            1.75E-04 
      4207    47.684  1.59E+02       149            1.71E-04 
      4208    47.691  1.91E+02       150            1.70E-04 
      4209    47.699  1.98E+02       150            1.70E-04 
      4210    47.707  2.09E+02       150            1.70E-04 
      4211    47.715  9.40E+01       150            1.73E-04 
      4212    47.722  8.70E+01       150            1.73E-04 
      4213    47.730  2.67E+02       151            1.68E-04 
      4214    47.738  1.19E+02       151            1.72E-04 
      4215    47.746  2.73E+02       151            1.68E-04 
      4216    47.753  1.40E+02       151            1.72E-04 
      4217    47.761  2.40E+02       152            1.69E-04 
      4218    47.769  1.02E+02       152            1.73E-04 
      4219    47.777  1.05E+02       152            1.73E-04 
      4220    47.785  2.39E+02       152            1.69E-04 
      4221    47.792  2.18E+02       153            1.70E-04 
      4222    47.800  4.61E+02       153            1.63E-04 
      4223    47.808  1.01E+02       153            1.73E-04 
      4224    47.816  2.99E+02       154            1.68E-04 
      4225    47.823  1.18E+02       154            1.73E-04 
      4226    47.831  2.56E+02       155            1.69E-04 
      4227    47.839  2.74E+02       155            1.69E-04 
      4228    47.847  1.42E+02       156            1.72E-04 
      4229    47.854  1.86E+02       156            1.71E-04 
      4230    47.862  2.86E+02       157            1.68E-04 
      4231    47.870  9.20E+01       157            1.74E-04 
      4232    47.878  2.17E+02       158            1.70E-04 
      4233    47.885  2.12E+02       159            1.71E-04 
      4234    47.893  1.99E+02       160            1.71E-04 
      4235    47.901  2.88E+02       160            1.68E-04 
      4236    47.909  2.03E+02       161            1.71E-04 
      4237    47.917  2.73E+02       162            1.69E-04 
      4238    47.924  1.98E+02       163            1.71E-04 
      4239    47.932  1.64E+02       164            1.72E-04 
      4240    47.940  3.48E+02       165            1.67E-04 
      4241    47.948  1.49E+02       167            1.73E-04 
      4242    47.955  1.90E+02       168            1.72E-04 
      4243    47.963  1.90E+02       169            1.72E-04 
      4244    47.971  2.30E+02       171            1.70E-04 
      4245    47.979  1.38E+02       173            1.73E-04 
      4246    47.986  1.92E+02       175            1.72E-04 
      4247    47.994  3.25E+02       177            1.68E-04 
      4248    48.002  6.10E+01       179            1.76E-04 
      4249    48.010  3.19E+02       182            1.68E-04 
      4250    48.018  1.40E+02       184            1.73E-04 
      4251    48.025  2.37E+02       188            1.71E-04 
      4252    48.033  9.80E+01       191            1.75E-04 
      4253    48.041  2.96E+02       195            1.69E-04 
      4254    48.049  1.54E+02       200            1.73E-04 
      4255    48.056  2.48E+02       205            1.70E-04 
      4256    48.064  2.09E+02       212            1.72E-04 
      4257    48.072  2.00E+02       220            1.72E-04 
      4258    48.080  4.14E+02       230            1.66E-04 
      4259    48.087  3.56E+02       243            1.67E-04 
      4260    48.095  2.52E+02       260            1.70E-04 
      4261    48.103  1.98E+02       283            1.72E-04 
      4262    48.111  4.12E+02       314            1.66E-04 
      4263    48.118  2.82E+02       355            1.70E-04 
      4264    48.126  4.33E+02       410            1.66E-04 
      4265    48.134  6.20E+02       481            1.61E-04 
      4266    48.142  6.02E+02       570            1.61E-04 
      4267    48.150  7.53E+02       682            1.57E-04 
      4268    48.157  8.06E+02       816            1.56E-04 
      4269    48.165  1.15E+03       973            1.48E-04 
      4270    48.173  1.40E+03  1.15E+03            1.43E-04 
      4271    48.181  1.49E+03  1.35E+03            1.41E-04 
      4272    48.188  1.70E+03  1.55E+03            1.37E-04 
      4273    48.196  2.06E+03  1.75E+03            1.31E-04 
      4274    48.204  1.97E+03  1.94E+03            1.32E-04 
      4275    48.212  2.15E+03  2.09E+03            1.29E-04 
      4276    48.219  2.23E+03  2.20E+03            1.28E-04 
      4277    48.227  2.20E+03  2.25E+03            1.28E-04 
      4278    48.235  2.23E+03  2.23E+03            1.28E-04 
      4279    48.243  2.09E+03  2.14E+03            1.30E-04 
      4280    48.251  1.92E+03  2.00E+03            1.33E-04 
      4281    48.258  1.78E+03  1.82E+03            1.36E-04 
      4282    48.266  1.53E+03  1.62E+03            1.41E-04 
      4283    48.274  1.59E+03  1.42E+03            1.39E-04 
      4284    48.282  1.41E+03  1.22E+03            1.43E-04 
      4285    48.289  1.17E+03  1.04E+03            1.48E-04 
      4286    48.297  1.16E+03       871            1.48E-04 
      4287    48.305  1.05E+03       728            1.51E-04 
      4288    48.313  8.89E+02       609            1.55E-04 
      4289    48.320  8.03E+02       511            1.57E-04 
      4290    48.328  8.15E+02       433            1.57E-04 
      4291    48.336  6.52E+02       373            1.61E-04 
      4292    48.344  4.30E+02       327            1.67E-04 
      4293    48.351  6.06E+02       293            1.62E-04 
      4294    48.359  5.93E+02       267            1.62E-04 
      4295    48.367  7.43E+02       248            1.59E-04 
      4296    48.375  5.36E+02       233            1.64E-04 
      4297    48.383  5.75E+02       222            1.63E-04 
      4298    48.390  6.52E+02       213            1.61E-04 
      4299    48.398  4.80E+02       206            1.66E-04 
      4300    48.406  5.83E+02       200            1.63E-04 
      4301    48.414  5.78E+02       195            1.63E-04 
      4302    48.421  3.75E+02       191            1.69E-04 
      4303    48.429  5.12E+02       187            1.65E-04 
      4304    48.437  6.02E+02       184            1.62E-04 
      4305    48.445  5.81E+02       181            1.63E-04 
      4306    48.452  4.21E+02       178            1.67E-04 
      4307    48.460  3.91E+02       176            1.68E-04 
      4308    48.468  3.82E+02       174            1.69E-04 
      4309    48.476  5.14E+02       172            1.65E-04 
      4310    48.484  5.22E+02       170            1.65E-04 
      4311    48.491  4.27E+02       168            1.67E-04 
      4312    48.499  5.12E+02       167            1.65E-04 
      4313    48.507  4.05E+02       165            1.68E-04 
      4314    48.515  2.91E+02       164            1.72E-04 
      4315    48.522  4.75E+02       163            1.66E-04 
      4316    48.530  5.06E+02       161            1.65E-04 
      4317    48.538  3.50E+02       160            1.70E-04 
      4318    48.546  3.20E+02       159            1.71E-04 
      4319    48.553  3.46E+02       158            1.70E-04 
      4320    48.561  3.19E+02       158            1.71E-04 
      4321    48.569  3.20E+02       157            1.71E-04 
      4322    48.577  3.43E+02       156            1.70E-04 
      4323    48.585  2.17E+02       155            1.74E-04 
      4324    48.592  3.22E+02       155            1.71E-04 
      4325    48.600  3.11E+02       154            1.71E-04 
      4326    48.608  3.03E+02       153            1.72E-04 
      4327    48.616  3.71E+02       153            1.70E-04 
      4328    48.623  3.74E+02       152            1.70E-04 
      4329    48.631  2.35E+02       152            1.74E-04 
      4330    48.639  3.22E+02       151            1.71E-04 
      4331    48.647  2.09E+02       151            1.75E-04 
      4332    48.654  3.00E+02       150            1.72E-04 
      4333    48.662  2.84E+02       150            1.72E-04 
      4334    48.670  2.38E+02       150            1.74E-04 
      4335    48.678  1.19E+02       149            1.78E-04 
      4336    48.685  2.98E+02       149            1.72E-04 
      4337    48.693  1.40E+02       148            1.77E-04 
      4338    48.701  3.21E+02       148            1.72E-04 
      4339    48.709  2.31E+02       148            1.74E-04 
      4340    48.717  2.12E+02       148            1.75E-04 
      4341    48.724  2.05E+02       147            1.75E-04 
      4342    48.732  2.51E+02       147            1.74E-04 
      4343    48.740  2.43E+02       147            1.74E-04 
      4344    48.748  2.94E+02       146            1.73E-04 
      4345    48.755  3.05E+02       146            1.72E-04 
      4346    48.763  2.10E+02       146            1.75E-04 
      4347    48.771  3.00E+02       146            1.73E-04 
      4348    48.779  3.34E+02       146            1.72E-04 
      4349    48.786  1.21E+02       145            1.78E-04 
      4350    48.794  3.66E+02       145            1.71E-04 
      4351    48.802  2.07E+02       145            1.76E-04 
      4352    48.810  3.65E+02       145            1.71E-04 
      4353    48.818  3.53E+02       145            1.71E-04 
      4354    48.825  3.30E+02       144            1.72E-04 
      4355    48.833  2.56E+02       144            1.74E-04 
      4356    48.841  6.00E+01       144            1.80E-04 
      4357    48.849  1.72E+02       144            1.77E-04 
      4358    48.856  2.70E+02       144            1.74E-04 
      4359    48.864  4.04E+02       144            1.70E-04 
      4360    48.872  2.68E+02       143            1.74E-04 
      4361    48.880  2.36E+02       143            1.75E-04 
      4362    48.887  4.02E+02       143            1.70E-04 
      4363    48.895  3.42E+02       143            1.72E-04 
      4364    48.903  1.63E+02       143            1.78E-04 
      4365    48.911  1.76E+02       143            1.77E-04 
      4366    48.918  3.16E+02       143            1.73E-04 
      4367    48.926  2.07E+02       143            1.76E-04 
      4368    48.934  3.11E+02       142            1.73E-04 
      4369    48.942  2.23E+02       142            1.76E-04 
      4370    48.950  2.43E+02       142            1.75E-04 
      4371    48.957  2.52E+02       142            1.75E-04 
      4372    48.965  1.66E+02       142            1.78E-04 
      4373    48.973  2.22E+02       142            1.76E-04 
      4374    48.981  2.30E+02       142            1.76E-04 
      4375    48.988  2.43E+02       142            1.75E-04 
      4376    48.996  1.29E+02       142            1.79E-04 
      4377    49.004  1.68E+02       142            1.78E-04 
      4378    49.012  2.52E+02       141            1.75E-04 
      4379    49.019  2.19E+02       141            1.76E-04 
      4380    49.027  1.35E+02       141            1.79E-04 
      4381    49.035  1.87E+02       141            1.77E-04 
      4382    49.043  2.60E+02       141            1.75E-04 
      4383    49.051  2.07E+02       141            1.77E-04 
      4384    49.058  1.80E+02       141            1.78E-04 
      4385    49.066  2.14E+02       141            1.77E-04 
      4386    49.074  1.57E+02       141            1.79E-04 
      4387    49.082  2.49E+02       141            1.76E-04 
      4388    49.089  2.81E+02       141            1.75E-04 
      4389    49.097  3.02E+02       141            1.74E-04 
      4390    49.105  2.68E+02       140            1.75E-04 
      4391    49.113  2.82E+02       140            1.75E-04 
      4392    49.120  1.64E+02       140            1.79E-04 
      4393    49.128  3.36E+02       140            1.73E-04 
      4394    49.136  3.22E+02       140            1.74E-04 
      4395    49.144  2.05E+02       140            1.78E-04 
      4396    49.152  1.93E+02       140            1.78E-04 
      4397    49.159  3.39E+02       140            1.73E-04 
      4398    49.167  1.79E+02       140            1.78E-04 
      4399    49.175  2.60E+02       140            1.76E-04 
      4400    49.183  2.98E+02       140            1.75E-04 
      4401    49.190  1.50E+02       140            1.80E-04 
      4402    49.198  6.50E+01       140            1.82E-04 
      4403    49.206  3.32E+02       140            1.74E-04 
      4404    49.214  1.53E+02       140            1.80E-04 
      4405    49.221  1.83E+02       139            1.79E-04 
      4406    49.229  1.23E+02       139            1.81E-04 
      4407    49.237  2.74E+02       139            1.76E-04 
      4408    49.245  2.20E+02       139            1.78E-04 
      4409    49.252  3.54E+02       139            1.74E-04 
      4410    49.260  1.24E+02       139            1.81E-04 
      4411    49.268  2.71E+02       139            1.76E-04 
      4412    49.276  3.70E+01       139            1.84E-04 
      4413    49.284  2.74E+02       139            1.76E-04 
      4414    49.291  2.73E+02       139            1.76E-04 
      4415    49.299  3.40E+02       139            1.74E-04 
      4416    49.307  1.16E+02       139            1.81E-04 
      4417    49.315  1.40E+02       139            1.81E-04 
      4418    49.322  1.36E+02       139            1.81E-04 
      4419    49.330  2.58E+02       139            1.77E-04 
      4420    49.338  1.56E+02       139            1.80E-04 
      4421    49.346  1.79E+02       139            1.80E-04 
      4422    49.353  2.82E+02       139            1.76E-04 
      4423    49.361  2.07E+02       137            1.79E-04 
      4424    49.369  1.70E+02       137            1.80E-04 
      4425    49.377  7.60E+01       137            1.83E-04 
      4426    49.385  2.09E+02       137            1.79E-04 
      4427    49.392  5.40E+01       137            1.84E-04 
      4428    49.400  1.15E+02       137            1.82E-04 
      4429    49.408  1.58E+02       137            1.81E-04 
      4430    49.416  1.63E+02       137            1.80E-04 
      4431    49.423  1.84E+02       137            1.80E-04 
      4432    49.431  2.74E+02       137            1.77E-04 
      4433    49.439  1.41E+02       137            1.81E-04 
      4434    49.447  1.61E+02       137            1.81E-04 
      4435    49.454  1.68E+02       137            1.80E-04 
      4436    49.462  1.64E+02       137            1.81E-04 
      4437    49.470  2.29E+02       137            1.79E-04 
      4438    49.478  2.19E+02       137            1.79E-04 
      4439    49.485  2.23E+02       137            1.79E-04 
      4440    49.493  1.74E+02       137            1.81E-04 
      4441    49.501  3.10E+01       137            1.85E-04 
      4442    49.509  1.52E+02       137            1.81E-04 
      4443    49.517  3.42E+02       136            1.75E-04 
      4444    49.524  5.00E+01       136            1.85E-04 
      4445    49.532  2.40E+02       136            1.79E-04 
      4446    49.540  8.70E+01       136            1.84E-04 
      4447    49.548  2.63E+02       136            1.78E-04 
      4448    49.555  2.46E+02       136            1.79E-04 
      4449    49.563  1.97E+02       136            1.80E-04 
      4450    49.571  2.48E+02       136            1.79E-04 
      4451    49.579  2.92E+02       136            1.77E-04 
      4452    49.586  1.96E+02       136            1.80E-04 
      4453    49.594  2.90E+02       136            1.77E-04 
      4454    49.602  9.60E+01       136            1.84E-04 
      4455    49.610  1.48E+02       136            1.82E-04 
      4456    49.618  2.17E+02       136            1.80E-04 
      4457    49.625  2.90E+02       136            1.78E-04 
      4458    49.633  1.07E+02       136            1.84E-04 
      4459    49.641  2.35E+02       136            1.79E-04 
      4460    49.649  2.60E+01       136            1.86E-04 
      4461    49.656  1.92E+02       136            1.81E-04 
      4462    49.664  2.60E+02       136            1.79E-04 
      4463    49.672 -3.00E+00       136            1.88E-04 
      4464    49.680  1.39E+02       136            1.83E-04 
      4465    49.687 -1.60E+01       136            1.88E-04 
      4466    49.695  1.74E+02       136            1.82E-04 
      4467    49.703  1.55E+02       136            1.82E-04 
      4468    49.711  1.82E+02       136            1.82E-04 
      4469    49.718  1.10E+01       136            1.87E-04 
      4470    49.726  1.92E+02       136            1.81E-04 
      4471    49.734  1.02E+02       136            1.84E-04 
      4472    49.742  8.50E+01       136            1.85E-04 
      4473    49.750  2.01E+02       136            1.81E-04 
      4474    49.757  2.63E+02       136            1.79E-04 
      4475    49.765  1.01E+02       136            1.84E-04 
      4476    49.773  1.55E+02       136            1.83E-04 
      4477    49.781  1.51E+02       136            1.83E-04 
      4478    49.788  1.61E+02       136            1.82E-04 
      4479    49.796  1.74E+02       136            1.82E-04 
      4480    49.804  4.20E+01       136            1.87E-04 
      4481    49.812  1.27E+02       136            1.84E-04 
      4482    49.819  2.14E+02       136            1.81E-04 
      4483    49.827  2.01E+02       136            1.81E-04 
      4484    49.835  1.20E+02       135            1.84E-04 
      4485    49.843  1.96E+02       135            1.82E-04 
      4486    49.851  1.02E+02       135            1.85E-04 
      4487    49.858  1.52E+02       135            1.83E-04 
      4488    49.866  2.49E+02       135            1.80E-04 
      4489    49.874  1.98E+02       135            1.82E-04 
      4490    49.882  8.70E+01       135            1.85E-04 
      4491    49.889  1.30E+02       135            1.84E-04 
      4492    49.897  1.53E+02       135            1.83E-04 
      4493    49.905  2.07E+02       135            1.81E-04 
      4494    49.913  3.12E+02       135            1.78E-04 
      4495    49.920  1.74E+02       135            1.83E-04 
      4496    49.928  4.24E+02       135            1.75E-04 
      4497    49.936  2.40E+01       135            1.88E-04 
      4498    49.944  1.77E+02       135            1.83E-04 
      4499    49.951  1.80E+02       135            1.83E-04 
      4500    49.959  1.65E+02       135            1.83E-04 
      4501    49.967  1.96E+02       135            1.82E-04 
      4502    49.975  1.87E+02       135            1.82E-04 
      4503    49.983  1.78E+02       135            1.83E-04 
      4504    49.990  1.44E+02       135            1.84E-04 
      4505    49.998  1.30E+02       135            1.84E-04 
      4506    50.006  1.15E+02       135            1.85E-04 
      4507    50.014  2.44E+02       135            1.81E-04 
      4508    50.021  1.39E+02       135            1.84E-04 
      4509    50.029  2.51E+02       135            1.81E-04 
      4510    50.037  8.10E+01       135            1.86E-04 
      4511    50.045 -6.80E+01       135            1.92E-04 
      4512    50.052  2.57E+02       135            1.80E-04 
      4513    50.060  9.10E+01       135            1.86E-04 
      4514    50.068  0.00E+00       135            1.89E-04 
      4515    50.076  4.60E+01       135            1.88E-04 
      4516    50.084  1.83E+02       135            1.83E-04 
      4517    50.091  1.52E+02       135            1.84E-04 
      4518    50.099  1.44E+02       135            1.84E-04 
      4519    50.107  3.06E+02       135            1.79E-04 
      4520    50.115  1.46E+02       135            1.84E-04 
      4521    50.122  1.00E+02       135            1.86E-04 
      4522    50.130  1.07E+02       135            1.86E-04 
      4523    50.138  5.90E+01       135            1.87E-04 
      4524    50.146  1.60E+02       135            1.84E-04 
      4525    50.153  1.57E+02       134            1.84E-04 
      4526    50.161  1.21E+02       134            1.85E-04 
      4527    50.169  1.94E+02       134            1.83E-04 
      4528    50.177  9.20E+01       134            1.87E-04 
      4529    50.185  1.08E+02       134            1.86E-04 
      4530    50.192  7.30E+01       134            1.87E-04 
      4531    50.200  1.58E+02       134            1.84E-04 
      4532    50.208  1.10E+02       134            1.86E-04 
      4533    50.216  1.03E+02       134            1.86E-04 
      4534    50.223  1.02E+02       134            1.86E-04 
      4535    50.231  1.25E+02       134            1.86E-04 
      4536    50.239  1.64E+02       134            1.84E-04 
      4537    50.247  2.33E+02       134            1.82E-04 
      4538    50.254  2.66E+02       134            1.81E-04 
      4539    50.262  3.02E+02       134            1.80E-04 
      4540    50.270  2.61E+02       134            1.81E-04 
      4541    50.278  1.42E+02       134            1.85E-04 
      4542    50.285  6.80E+01       134            1.88E-04 
      4543    50.293  1.45E+02       134            1.85E-04 
      4544    50.301  2.41E+02       134            1.82E-04 
      4545    50.309  1.78E+02       134            1.84E-04 
      4546    50.317  2.50E+02       134            1.82E-04 
      4547    50.324  1.58E+02       134            1.85E-04 
      4548    50.332  1.72E+02       134            1.84E-04 
      4549    50.340  1.70E+01       134            1.90E-04 
      4550    50.348  1.08E+02       134            1.87E-04 
      4551    50.355  1.10E+02       134            1.87E-04 
      4552    50.363  1.80E+02       134            1.84E-04 
      4553    50.371 -1.70E+01       134            1.91E-04 
      4554    50.379  1.39E+02       134            1.86E-04 
      4555    50.386  1.72E+02       134            1.85E-04 
      4556    50.394  5.00E+00       134            1.91E-04 
      4557    50.402  1.17E+02       134            1.87E-04 
      4558    50.410 -3.70E+01       134            1.92E-04 
      4559    50.418  1.65E+02       134            1.85E-04 
      4560    50.425  1.10E+01       134            1.91E-04 
      4561    50.433  1.37E+02       134            1.86E-04 
      4562    50.441  2.62E+02       134            1.82E-04 
      4563    50.449  4.80E+01       134            1.89E-04 
      4564    50.456  1.67E+02       134            1.85E-04 
      4565    50.464  1.36E+02       134            1.86E-04 
      4566    50.472  2.10E+02       134            1.84E-04 
      4567    50.480  1.23E+02       134            1.87E-04 
      4568    50.487  1.22E+02       133            1.87E-04 
      4569    50.495  8.60E+01       133            1.88E-04 
      4570    50.503  5.20E+01       133            1.89E-04 
      4571    50.511  5.40E+01       133            1.89E-04 
      4572    50.518  2.79E+02       133            1.82E-04 
      4573    50.526  7.60E+01       133            1.89E-04 
      4574    50.534  6.20E+01       133            1.89E-04 
      4575    50.542  2.14E+02       133            1.84E-04 
      4576    50.550 -1.40E+01       133            1.92E-04 
      4577    50.557  3.00E+01       133            1.90E-04 
      4578    50.565  8.50E+01       133            1.88E-04 
      4579    50.573  1.55E+02       133            1.86E-04 
      4580    50.581  1.75E+02       133            1.85E-04 
      4581    50.588  1.53E+02       133            1.86E-04 
      4582    50.596  4.00E+01       133            1.90E-04 
      4583    50.604  1.80E+02       133            1.85E-04 
      4584    50.612  5.00E+01       133            1.90E-04 
      4585    50.619  3.40E+01       133            1.91E-04 
      4586    50.627  3.20E+01       133            1.91E-04 
      4587    50.635  1.01E+02       133            1.88E-04 
      4588    50.643  1.22E+02       133            1.88E-04 
      4589    50.651 -5.20E+01       133            1.94E-04 
      4590    50.658  1.21E+02       133            1.88E-04 
      4591    50.666  1.25E+02       133            1.88E-04 
      4592    50.674  7.80E+01       133            1.89E-04 
      4593    50.682  1.20E+02       133            1.88E-04 
      4594    50.689  2.05E+02       133            1.85E-04 
      4595    50.697  1.09E+02       133            1.88E-04 
      4596    50.705 -3.60E+01       133            1.94E-04 
      4597    50.713  7.00E+01       133            1.90E-04 
      4598    50.720  1.59E+02       133            1.87E-04 
      4599    50.728  1.03E+02       133            1.89E-04 
      4600    50.736  6.90E+01       133            1.90E-04 
      4601    50.744  7.60E+01       133            1.90E-04 
      4602    50.751  2.01E+02       133            1.85E-04 
      4603    50.759  1.75E+02       133            1.86E-04 
      4604    50.767  3.10E+01       133            1.91E-04 
      4605    50.775  9.20E+01       133            1.89E-04 
      4606    50.783  2.78E+02       133            1.83E-04 
      4607    50.790  1.70E+01       133            1.92E-04 
      4608    50.798  1.30E+01       133            1.92E-04 
      4609    50.806  9.60E+01       133            1.89E-04 
      4610    50.814  5.90E+01       133            1.91E-04 
      4611    50.821 -6.70E+01       133            1.95E-04 
      4612    50.829  2.01E+02       132            1.86E-04 
      4613    50.837  1.21E+02       132            1.88E-04 
      4614    50.845  1.62E+02       132            1.87E-04 
      4615    50.852  6.90E+01       132            1.90E-04 
      4616    50.860  2.10E+01       132            1.92E-04 
      4617    50.868  1.17E+02       132            1.89E-04 
      4618    50.876  9.90E+01       132            1.89E-04 
      4619    50.884  2.10E+01       132            1.92E-04 
      4620    50.891  1.67E+02       132            1.87E-04 
      4621    50.899  2.60E+02       132            1.84E-04 
      4622    50.907  5.00E+01       132            1.91E-04 
      4623    50.915  1.20E+02       132            1.89E-04 
      4624    50.922  8.00E+00       132            1.93E-04 
      4625    50.930  2.30E+02       132            1.85E-04 
      4626    50.938 -1.50E+01       132            1.94E-04 
      4627    50.946  1.38E+02       132            1.88E-04 
      4628    50.953  8.40E+01       132            1.90E-04 
      4629    50.961  2.33E+02       132            1.85E-04 
      4630    50.969  2.50E+01       132            1.93E-04 
      4631    50.977  1.74E+02       132            1.87E-04 
      4632    50.985  8.40E+01       132            1.90E-04 
      4633    50.992  5.50E+01       132            1.92E-04 
      4634    51.000 -3.90E+01       132            1.95E-04 
      4635    51.008  9.30E+01       132            1.90E-04 
      4636    51.016  1.87E+02       132            1.87E-04 
      4637    51.023  1.11E+02       132            1.90E-04 
      4638    51.031  2.55E+02       132            1.85E-04 
      4639    51.039  2.62E+02       132            1.84E-04 
      4640    51.047  1.70E+02       132            1.88E-04 
      4641    51.054  1.24E+02       132            1.89E-04 
      4642    51.062  1.06E+02       132            1.90E-04 
      4643    51.070  1.66E+02       132            1.88E-04 
      4644    51.078  2.18E+02       132            1.86E-04 
      4645    51.085  1.28E+02       132            1.89E-04 
      4646    51.093  2.80E+01       132            1.93E-04 
      4647    51.101  2.83E+02       132            1.84E-04 
      4648    51.109  1.37E+02       132            1.89E-04 
      4649    51.117 -8.00E+00       132            1.94E-04 
      4650    51.124  9.20E+01       132            1.91E-04 
      4651    51.132  1.29E+02       132            1.89E-04 
      4652    51.140  2.10E+02       132            1.87E-04 
      4653    51.148  1.17E+02       132            1.90E-04 
      4654    51.155  2.43E+02       132            1.86E-04 
      4655    51.163 -4.00E+00       132            1.95E-04 
      4656    51.171  1.42E+02       132            1.89E-04 
      4657    51.179  1.58E+02       131            1.89E-04 
      4658    51.186  2.53E+02       131            1.85E-04 
      4659    51.194  1.04E+02       131            1.91E-04 
      4660    51.202  1.88E+02       131            1.88E-04 
      4661    51.210  1.37E+02       131            1.90E-04 
      4662    51.218  1.16E+02       131            1.90E-04 
      4663    51.225  1.94E+02       131            1.88E-04 
      4664    51.233  4.60E+01       131            1.93E-04 
      4665    51.241  8.00E+01       131            1.92E-04 
      4666    51.249  1.34E+02       131            1.90E-04 
      4667    51.256  3.00E+00       131            1.95E-04 
      4668    51.264  1.74E+02       131            1.88E-04 
      4669    51.272  1.86E+02       131            1.88E-04 
      4670    51.280  1.17E+02       131            1.91E-04 
      4671    51.287  6.80E+01       131            1.92E-04 
      4672    51.295  1.90E+02       131            1.88E-04 
      4673    51.303  4.40E+01       131            1.93E-04 
      4674    51.311  1.00E+02       131            1.91E-04 
      4675    51.318  2.88E+02       131            1.85E-04 
      4676    51.326  1.50E+02       131            1.90E-04 
      4677    51.334  8.00E+01       131            1.92E-04 
      4678    51.342  2.52E+02       131            1.86E-04 
      4679    51.350  1.66E+02       131            1.89E-04 
      4680    51.357  5.90E+01       131            1.93E-04 
      4681    51.365  1.75E+02       131            1.89E-04 
      4682    51.373  6.20E+01       131            1.93E-04 
      4683    51.381  2.20E+01       131            1.95E-04 
      4684    51.388  1.24E+02       131            1.91E-04 
      4685    51.396  5.40E+01       131            1.93E-04 
      4686    51.404  1.17E+02       131            1.91E-04 
      4687    51.412 -7.00E+00       131            1.96E-04 
      4688    51.419  1.49E+02       131            1.90E-04 
      4689    51.427  1.64E+02       131            1.90E-04 
      4690    51.435 -1.10E+01       131            1.96E-04 
      4691    51.443  1.78E+02       131            1.89E-04 
      4692    51.451  2.17E+02       131            1.88E-04 
      4693    51.458  2.15E+02       131            1.88E-04 
      4694    51.466  1.44E+02       131            1.90E-04 
      4695    51.474  7.00E+00       131            1.96E-04 
      4696    51.482  1.96E+02       131            1.89E-04 
      4697    51.489  4.80E+01       131            1.94E-04 
      4698    51.497  1.88E+02       131            1.89E-04 
      4699    51.505  8.40E+01       131            1.93E-04 
      4700    51.513 -7.00E+00       131            1.96E-04 
      4701    51.520  1.58E+02       131            1.90E-04 
      4702    51.528  1.50E+02       131            1.90E-04 
      4703    51.536  2.30E+01       130            1.95E-04 
      4704    51.544  6.90E+01       130            1.94E-04 
      4705    51.552  5.40E+01       130            1.94E-04 
      4706    51.559  1.41E+02       130            1.91E-04 
      4707    51.567  2.74E+02       130            1.86E-04 
      4708    51.575  1.47E+02       130            1.91E-04 
      4709    51.583  1.60E+01       130            1.96E-04 
      4710    51.590  8.30E+01       130            1.93E-04 
      4711    51.598  1.74E+02       130            1.90E-04 
      4712    51.606  1.91E+02       130            1.89E-04 
      4713    51.614  2.40E+01       130            1.96E-04 
      4714    51.621  1.63E+02       130            1.90E-04 
      4715    51.629  1.73E+02       130            1.90E-04 
      4716    51.637  4.40E+01       130            1.95E-04 
      4717    51.645  5.10E+01       130            1.95E-04 
      4718    51.652  1.11E+02       130            1.93E-04 
      4719    51.660  1.11E+02       130            1.93E-04 
      4720    51.668  2.47E+02       130            1.88E-04 
      4721    51.676  1.30E+02       130            1.92E-04 
      4722    51.684  5.30E+01       130            1.95E-04 
      4723    51.691 -4.20E+01       130            1.99E-04 
      4724    51.699  9.50E+01       130            1.93E-04 
      4725    51.707  1.04E+02       130            1.93E-04 
      4726    51.715  2.19E+02       130            1.89E-04 
      4727    51.722  5.50E+01       130            1.95E-04 
      4728    51.730  6.50E+01       130            1.95E-04 
      4729    51.738  1.51E+02       130            1.91E-04 
      4730    51.746  7.00E+00       130            1.97E-04 
      4731    51.753  1.03E+02       130            1.93E-04 
      4732    51.761  1.48E+02       130            1.92E-04 
      4733    51.769  1.01E+02       130            1.93E-04 
      4734    51.777  1.57E+02       130            1.91E-04 
      4735    51.785  2.22E+02       130            1.89E-04 
      4736    51.792  6.90E+01       130            1.95E-04 
      4737    51.800  0.00E+00       137            1.97E-04 
      4738    51.808  1.12E+02       137            1.93E-04 
      4739    51.816  2.00E+00       137            1.97E-04 
      4740    51.823  9.10E+01       138            1.94E-04 
      4741    51.831  9.00E+01       138            1.94E-04 
      4742    51.839  1.99E+02       138            1.90E-04 
      4743    51.847 -6.90E+01       138            2.00E-04 
      4744    51.854  8.30E+01       138            1.94E-04 
      4745    51.862 -3.20E+01       138            1.99E-04 
      4746    51.870  1.78E+02       138            1.91E-04 
      4747    51.878  8.80E+01       138            1.94E-04 
      4748    51.885  9.30E+01       138            1.94E-04 
      4749    51.893  1.68E+02       138            1.91E-04 
      4750    51.901  1.41E+02       139            1.93E-04 
      4751    51.909  4.00E+01       139            1.96E-04 
      4752    51.917  2.03E+02       139            1.90E-04 
      4753    51.924  1.92E+02       139            1.91E-04 
      4754    51.932  5.90E+01       139            1.96E-04 
      4755    51.940  5.30E+01       139            1.96E-04 
      4756    51.948  1.20E+02       139            1.93E-04 
      4757    51.955  1.38E+02       139            1.93E-04 
      4758    51.963  2.49E+02       140            1.89E-04 
      4759    51.971  1.23E+02       140            1.93E-04 
      4760    51.979  1.42E+02       140            1.93E-04 
      4761    51.986  1.15E+02       140            1.94E-04 
      4762    51.994 -6.60E+01       140            2.01E-04 
      4763    52.002  8.00E+01       140            1.95E-04 
      4764    52.010  1.70E+02       141            1.92E-04 
      4765    52.018  5.00E+01       141            1.96E-04 
      4766    52.025  1.34E+02       141            1.93E-04 
      4767    52.033  1.43E+02       141            1.93E-04 
      4768    52.041  7.50E+01       141            1.96E-04 
      4769    52.049  1.22E+02       141            1.94E-04 
      4770    52.056  1.71E+02       142            1.92E-04 
      4771    52.064  4.60E+01       142            1.97E-04 
      4772    52.072  1.20E+02       142            1.94E-04 
      4773    52.080  5.20E+01       142            1.97E-04 
      4774    52.087  4.30E+01       143            1.97E-04 
      4775    52.095  1.60E+02       143            1.93E-04 
      4776    52.103  8.90E+01       143            1.95E-04 
      4777    52.111  2.33E+02       143            1.90E-04 
      4778    52.118  1.35E+02       143            1.94E-04 
      4779    52.126  1.43E+02       144            1.93E-04 
      4780    52.134  1.93E+02       144            1.91E-04 
      4781    52.142  1.63E+02       144            1.93E-04 
      4782    52.150  1.70E+02       155            1.92E-04 
      4783    52.157  1.46E+02       156            1.93E-04 
      4784    52.165  8.70E+01       157            1.96E-04 
      4785    52.173  1.77E+02       158            1.92E-04 
      4786    52.181  1.81E+02       160            1.92E-04 
      4787    52.188  1.10E+02       161            1.95E-04 
      4788    52.196  1.13E+02       163            1.95E-04 
      4789    52.204  4.20E+01       165            1.97E-04 
      4790    52.212  1.39E+02       168            1.94E-04 
      4791    52.219  2.76E+02       171            1.89E-04 
      4792    52.227  2.65E+02       175            1.89E-04 
      4793    52.235  1.06E+02       181            1.95E-04 
      4794    52.243  1.95E+02       189            1.92E-04 
      4795    52.251  2.66E+02       199            1.89E-04 
      4796    52.258  2.34E+02       213            1.90E-04 
      4797    52.266  4.34E+02       231            1.83E-04 
      4798    52.274  3.04E+02       254            1.88E-04 
      4799    52.282  3.35E+02       284            1.87E-04 
      4800    52.289  3.15E+02       321            1.88E-04 
      4801    52.297  4.29E+02       367            1.84E-04 
      4802    52.305  4.45E+02       423            1.83E-04 
      4803    52.313  5.84E+02       489            1.79E-04 
      4804    52.320  7.13E+02       565            1.75E-04 
      4805    52.328  7.11E+02       651            1.75E-04 
      4806    52.336  8.77E+02       745            1.70E-04 
      4807    52.344  9.01E+02       847            1.69E-04 
      4808    52.352  9.02E+02       952            1.69E-04 
      4809    52.359  1.21E+03  1.06E+03            1.61E-04 
      4810    52.367  1.25E+03  1.16E+03            1.60E-04 
      4811    52.375  1.18E+03  1.26E+03            1.62E-04 
      4812    52.383  1.41E+03  1.34E+03            1.56E-04 
      4813    52.390  1.43E+03  1.40E+03            1.55E-04 
      4814    52.398  1.61E+03  1.44E+03            1.51E-04 
      4815    52.406  1.46E+03  1.46E+03            1.55E-04 
      4816    52.414  1.50E+03  1.45E+03            1.54E-04 
      4817    52.421  1.41E+03  1.42E+03            1.56E-04 
      4818    52.429  1.43E+03  1.37E+03            1.55E-04 
      4819    52.437  1.25E+03  1.29E+03            1.60E-04 
      4820    52.445  1.22E+03  1.20E+03            1.61E-04 
      4821    52.452  1.17E+03  1.10E+03            1.62E-04 
      4822    52.460  9.91E+02  1.00E+03            1.67E-04 
      4823    52.468  9.55E+02       897            1.68E-04 
      4824    52.476  7.32E+02       796            1.75E-04 
      4825    52.484  6.59E+02       701            1.77E-04 
      4826    52.491  7.28E+02       614            1.75E-04 
      4827    52.499  5.37E+02       537            1.81E-04 
      4828    52.507  6.08E+02       471            1.79E-04 
      4829    52.515  5.65E+02       414            1.80E-04 
      4830    52.522  5.68E+02       368            1.80E-04 
      4831    52.530  4.61E+02       330            1.83E-04 
      4832    52.538  4.25E+02       301            1.85E-04 
      4833    52.546  3.73E+02       279            1.86E-04 
      4834    52.553  3.15E+02       262            1.89E-04 
      4835    52.561  3.10E+02       250            1.89E-04 
      4836    52.569  2.43E+02       242            1.91E-04 
      4837    52.577  2.65E+02       237            1.90E-04 
      4838    52.585  2.32E+02       234            1.92E-04 
      4839    52.592  2.03E+02       233            1.93E-04 
      4840    52.600  1.81E+02       234            1.94E-04 
      4841    52.608  1.22E+02       235            1.96E-04 
      4842    52.616  2.27E+02       238            1.92E-04 
      4843    52.623  3.46E+02       241            1.88E-04 
      4844    52.631  2.14E+02       244            1.92E-04 
      4845    52.639  2.44E+02       249            1.91E-04 
      4846    52.647  2.15E+02       253            1.93E-04 
      4847    52.654  2.58E+02       259            1.91E-04 
      4848    52.662  2.22E+02       254            1.92E-04 
      4849    52.670  3.16E+02       261            1.89E-04 
      4850    52.678  2.20E+02       269            1.92E-04 
      4851    52.685  3.42E+02       278            1.88E-04 
      4852    52.693  3.41E+02       287            1.88E-04 
      4853    52.701  2.29E+02       297            1.92E-04 
      4854    52.709  1.13E+02       308            1.97E-04 
      4855    52.717  1.40E+02       321            1.96E-04 
      4856    52.724  1.21E+02       335            1.96E-04 
      4857    52.732  2.17E+02       350            1.93E-04 
      4858    52.740  2.48E+02       368            1.92E-04 
      4859    52.748  3.05E+02       389            1.90E-04 
      4860    52.755  3.49E+02       413            1.88E-04 
      4861    52.763  3.63E+02       442            1.88E-04 
      4862    52.771  2.35E+02       477            1.92E-04 
      4863    52.779  3.84E+02       522            1.87E-04 
      4864    52.786  3.70E+02       580            1.87E-04 
      4865    52.794  3.87E+02       656            1.87E-04 
      4866    52.802  5.11E+02       757            1.83E-04 
      4867    52.810  6.11E+02       890            1.79E-04 
      4868    52.818  7.37E+02  1.07E+03            1.75E-04 
      4869    52.825  9.96E+02  1.29E+03            1.68E-04 
      4870    52.833  1.40E+03  1.59E+03            1.57E-04 
      4871    52.841  1.59E+03  1.95E+03            1.53E-04 
      4872    52.849  2.23E+03  2.40E+03            1.39E-04 
      4873    52.856  2.72E+03  2.95E+03            1.30E-04 
      4874    52.864  3.58E+03  3.58E+03            1.17E-04 
      4875    52.872  4.43E+03  4.30E+03            1.07E-04 
      4876    52.880  5.29E+03  5.09E+03            9.75E-05 
      4877    52.887  6.08E+03  5.93E+03            9.05E-05 
      4878    52.895  7.23E+03  6.78E+03            8.20E-05 
      4879    52.903  7.72E+03  7.60E+03            7.90E-05 
      4880    52.911  8.25E+03  8.33E+03            7.58E-05 
      4881    52.918  8.59E+03  8.91E+03            7.39E-05 
      4882    52.926  9.22E+03  9.27E+03            7.06E-05 
      4883    52.934  9.09E+03  9.38E+03            7.12E-05 
      4884    52.942  8.84E+03  9.22E+03            7.25E-05 
      4885    52.950  8.40E+03  8.81E+03            7.49E-05 
      4886    52.957  7.99E+03  8.19E+03            7.73E-05 
      4887    52.965  7.07E+03  7.44E+03            8.32E-05 
      4888    52.973  6.32E+03  6.61E+03            8.87E-05 
      4889    52.981  5.67E+03  5.76E+03            9.41E-05 
      4890    52.988  4.79E+03  4.93E+03            1.03E-04 
      4891    52.996  4.06E+03  4.15E+03            1.11E-04 
      4892    53.004  3.31E+03  3.45E+03            1.21E-04 
      4893    53.012  2.76E+03  2.83E+03            1.30E-04 
      4894    53.019  2.39E+03  2.31E+03            1.36E-04 
      4895    53.027  2.00E+03  1.87E+03            1.44E-04 
      4896    53.035  1.69E+03  1.52E+03            1.51E-04 
      4897    53.043  1.51E+03  1.24E+03            1.55E-04 
      4898    53.051  1.22E+03  1.03E+03            1.62E-04 
      4899    53.058  9.99E+02       859            1.68E-04 
      4900    53.066  9.43E+02       734            1.70E-04 
      4901    53.074  8.22E+02       639            1.74E-04 
      4902    53.082  7.73E+02       567            1.75E-04 
      4903    53.089  6.15E+02       512            1.80E-04 
      4904    53.097  5.33E+02       469            1.83E-04 
      4905    53.105  5.93E+02       434            1.81E-04 
      4906    53.113  5.43E+02       407            1.83E-04 
      4907    53.120  5.32E+02       383            1.83E-04 
      4908    53.128  4.65E+02       363            1.85E-04 
      4909    53.136  3.43E+02       346            1.90E-04 
      4910    53.144  3.38E+02       331            1.90E-04 
      4911    53.152  3.20E+02       317            1.90E-04 
      4912    53.159  4.37E+02       305            1.86E-04 
      4913    53.167  3.90E+02       294            1.88E-04 
      4914    53.175  2.46E+02       284            1.93E-04 
      4915    53.183  2.87E+02       275            1.92E-04 
      4916    53.190  3.48E+02       266            1.90E-04 
      4917    53.198  2.60E+02       258            1.93E-04 
      4918    53.206  2.09E+02       251            1.95E-04 
      4919    53.214  2.08E+02       245            1.95E-04 
      4920    53.221  1.89E+02       239            1.96E-04 
      4921    53.229  1.56E+02       233            1.97E-04 
      4922    53.237  1.24E+02       228            1.98E-04 
      4923    53.245  2.92E+02       223            1.92E-04 
      4924    53.252  1.80E+02       218            1.96E-04 
      4925    53.260  2.31E+02       214            1.94E-04 
      4926    53.268  2.99E+02       210            1.92E-04 
      4927    53.276  1.70E+02       207            1.97E-04 
      4928    53.284  1.54E+02       203            1.97E-04 
      4929    53.291  1.61E+02       200            1.97E-04 
      4930    53.299  1.81E+02       197            1.96E-04 
      4931    53.307  2.42E+02       194            1.94E-04 
      4932    53.315  1.82E+02       191            1.96E-04 
      4933    53.322  2.91E+02       189            1.92E-04 
      4934    53.330  2.03E+02       186            1.95E-04 
      4935    53.338  8.20E+01       184            2.00E-04 
      4936    53.346  2.00E+02       182            1.96E-04 
      4937    53.353  1.20E+02       180            1.99E-04 
      4938    53.361  1.36E+02       178            1.98E-04 
      4939    53.369  1.71E+02       176            1.97E-04 
      4940    53.377  6.60E+01       174            2.01E-04 
      4941    53.385  1.74E+02       173            1.97E-04 
      4942    53.392  2.22E+02       171            1.95E-04 
      4943    53.400  6.30E+01       170            2.01E-04 
      4944    53.408  2.29E+02       168            1.95E-04 
      4945    53.416  1.94E+02       167            1.96E-04 
      4946    53.423  1.95E+02       166            1.96E-04 
      4947    53.431  1.50E+02       164            1.98E-04 
      4948    53.439  1.26E+02       163            1.99E-04 
      4949    53.447  1.31E+02       162            1.99E-04 
      4950    53.454  1.70E+01       161            2.03E-04 
      4951    53.462  1.10E+01       160            2.04E-04 
      4952    53.470  1.98E+02       159            1.96E-04 
      4953    53.478  1.31E+02       158            1.99E-04 
      4954    53.485  1.07E+02       157            2.00E-04 
      4955    53.493  1.80E+01       156            2.03E-04 
      4956    53.501  2.47E+02       155            1.94E-04 
      4957    53.509  6.30E+01       155            2.02E-04 
      4958    53.517  2.04E+02       154            1.96E-04 
      4959    53.524  1.78E+02       153            1.97E-04 
      4960    53.532  2.65E+02       152            1.94E-04 
      4961    53.540  1.47E+02       152            1.98E-04 
      4962    53.548  7.60E+01       151            2.01E-04 
      4963    53.555  6.50E+01       150            2.02E-04 
      4964    53.563  2.46E+02       150            1.95E-04 
      4965    53.571  1.95E+02       149            1.97E-04 
      4966    53.579  1.41E+02       149            1.99E-04 
      4967    53.586  1.60E+02       148            1.98E-04 
      4968    53.594 -4.40E+01       147            2.06E-04 
      4969    53.602  1.10E+02       147            2.00E-04 
      4970    53.610  2.43E+02       146            1.95E-04 
      4971    53.618  7.00E+00       146            2.04E-04 
      4972    53.625  1.70E+02       145            1.98E-04 
      4973    53.633  1.53E+02       145            1.99E-04 
      4974    53.641  1.93E+02       145            1.97E-04 
      4975    53.649 -2.80E+01       144            2.06E-04 
      4976    53.656  5.60E+01       144            2.03E-04 
      4977    53.664  1.87E+02       143            1.97E-04 
      4978    53.672  2.00E+01       143            2.04E-04 
      4979    53.680  4.90E+01       143            2.03E-04 
      4980    53.687  1.07E+02       142            2.01E-04 
      4981    53.695  3.80E+01       142            2.03E-04 
      4982    53.703  9.90E+01       141            2.01E-04 
      4983    53.711  1.88E+02       141            1.97E-04 
      4984    53.718  1.55E+02       141            1.99E-04 
      4985    53.726  3.70E+01       140            2.04E-04 
      4986    53.734  9.00E+01       140            2.02E-04 
      4987    53.742  3.00E+01       140            2.04E-04 
      4988    53.750  1.66E+02       140            1.99E-04 
      4989    53.757  1.06E+02       139            2.01E-04 
      4990    53.765  8.60E+01       139            2.02E-04 
      4991    53.773  3.00E+01       139            2.04E-04 
      4992    53.781  2.90E+01       138            2.04E-04 
      4993    53.788  2.17E+02       138            1.97E-04 
      4994    53.796  6.80E+01       138            2.03E-04 
      4995    53.804  8.70E+01       138            2.02E-04 
      4996    53.812  1.75E+02       137            1.98E-04 
      4997    53.819  7.00E+01       137            2.03E-04 
      4998    53.827  1.82E+02       137            1.98E-04 
      4999    53.835  1.20E+01       137            2.05E-04 
      5000    53.843  2.60E+02       137            1.95E-04 
      5001    53.851  7.70E+01       136            2.02E-04 
      5002    53.858  9.50E+01       136            2.02E-04 
      5003    53.866  1.29E+02       136            2.00E-04 
      5004    53.874  9.90E+01       136            2.02E-04 
      5005    53.882  1.80E+02       143            1.98E-04 
      5006    53.889  1.43E+02       143            2.00E-04 
      5007    53.897  1.97E+02       143            1.98E-04 
      5008    53.905  8.50E+01       143            2.02E-04 
      5009    53.913  1.00E+01       143            2.06E-04 
      5010    53.920  1.43E+02       142            2.00E-04 
      5011    53.928  1.10E+01       142            2.06E-04 
      5012    53.936  1.55E+02       142            2.00E-04 
      5013    53.944  1.30E+02       142            2.01E-04 
      5014    53.952  1.64E+02       142            1.99E-04 
      5015    53.959  2.32E+02       142            1.97E-04 
      5016    53.967  1.74E+02       142            1.99E-04 
      5017    53.975  9.40E+01       142            2.02E-04 
      5018    53.983  2.80E+01       142            2.05E-04 
      5019    53.990  1.09E+02       142            2.02E-04 
      5020    53.998  1.07E+02       142            2.02E-04 
      5021    54.006  1.89E+02       142            1.98E-04 
      5022    54.014  1.86E+02       142            1.99E-04 
      5023    54.021  2.42E+02       142            1.96E-04 
      5024    54.029  9.30E+01       142            2.02E-04 
      5025    54.037  7.30E+01       142            2.03E-04 
      5026    54.045  1.64E+02       142            1.99E-04 
      5027    54.052  9.20E+01       142            2.02E-04 
      5028    54.060  4.50E+01       134            2.04E-04 
      5029    54.068  1.86E+02       134            1.99E-04 
      5030    54.076  5.80E+01       135            2.04E-04 
      5031    54.084  1.15E+02       135            2.02E-04 
      5032    54.091  2.66E+02       135            1.96E-04 
      5033    54.099  7.20E+01       135            2.03E-04 
      5034    54.107  1.53E+02       135            2.00E-04 
      5035    54.115  1.07E+02       135            2.02E-04 
      5036    54.122  2.12E+02       136            1.98E-04 
      5037    54.130  1.10E+01       136            2.06E-04 
      5038    54.138  6.20E+01       136            2.04E-04 
      5039    54.146  1.27E+02       136            2.01E-04 
      5040    54.153  6.60E+01       136            2.04E-04 
      5041    54.161  1.34E+02       137            2.01E-04 
      5042    54.169  1.34E+02       137            2.01E-04 
      5043    54.177  2.19E+02       137            1.98E-04 
      5044    54.185  1.54E+02       137            2.00E-04 
      5045    54.192  2.17E+02       137            1.98E-04 
      5046    54.200  2.20E+02       138            1.98E-04 
      5047    54.208  1.66E+02       138            2.00E-04 
      5048    54.216  1.94E+02       138            1.99E-04 
      5049    54.223  1.10E+01       138            2.06E-04 
      5050    54.231  2.54E+02       139            1.96E-04 
      5051    54.239  1.44E+02       139            2.01E-04 
      5052    54.247  5.60E+01       139            2.04E-04 
      5053    54.254  1.08E+02       140            2.02E-04 
      5054    54.262  1.57E+02       140            2.00E-04 
      5055    54.270 -1.00E+00       140            2.07E-04 
      5056    54.278  6.00E+01       141            2.04E-04 
      5057    54.285  1.41E+02       141            2.01E-04 
      5058    54.293  1.17E+02       141            2.02E-04 
      5059    54.301  1.43E+02       142            2.01E-04 
      5060    54.309  1.06E+02       142            2.02E-04 
      5061    54.317  1.92E+02       142            1.99E-04 
      5062    54.324  1.98E+02       143            1.99E-04 
      5063    54.332  1.83E+02       143            1.99E-04 
      5064    54.340  6.20E+01       144            2.04E-04 
      5065    54.348  1.49E+02       144            2.01E-04 
      5066    54.355  2.54E+02       145            1.97E-04 
      5067    54.363  7.10E+01       145            2.04E-04 
      5068    54.371  1.62E+02       146            2.00E-04 
      5069    54.379  8.10E+01       146            2.03E-04 
      5070    54.386  1.03E+02       147            2.03E-04 
      5071    54.394  8.70E+01       147            2.03E-04 
      5072    54.402  4.40E+01       148            2.05E-04 
      5073    54.410  6.00E+01       148            2.04E-04 
      5074    54.418  1.24E+02       149            2.02E-04 
      5075    54.425  2.50E+01       150            2.06E-04 
      5076    54.433  1.45E+02       150            2.01E-04 
      5077    54.441  1.66E+02       151            2.00E-04 
      5078    54.449  3.03E+02       152            1.95E-04 
      5079    54.456  1.98E+02       153            1.99E-04 
      5080    54.464  8.10E+01       153            2.04E-04 
      5081    54.472  1.85E+02       154            1.99E-04 
      5082    54.480  7.30E+01       155            2.04E-04 
      5083    54.487  1.86E+02       156            1.99E-04 
      5084    54.495  6.00E+01       157            2.05E-04 
      5085    54.503  1.69E+02       158            2.00E-04 
      5086    54.511  2.73E+02       159            1.96E-04 
      5087    54.518  1.05E+02       160            2.03E-04 
      5088    54.526  2.39E+02       161            1.97E-04 
      5089    54.534  3.39E+02       162            1.94E-04 
      5090    54.542  2.36E+02       164            1.98E-04 
      5091    54.550  1.02E+02       165            2.03E-04 
      5092    54.557  1.75E+02       166            2.00E-04 
      5093    54.565  8.00E+01       168            2.04E-04 
      5094    54.573  2.97E+02       169            1.95E-04 
      5095    54.581  1.96E+02       171            1.99E-04 
      5096    54.588  1.06E+02       173            2.03E-04 
      5097    54.596  2.00E+01       175            2.06E-04 
      5098    54.604  1.21E+02       177            2.02E-04 
      5099    54.612  1.20E+02       179            2.02E-04 
      5100    54.619  1.79E+02       181            2.00E-04 
      5101    54.627  1.59E+02       183            2.01E-04 
      5102    54.635  1.47E+02       186            2.01E-04 
      5103    54.643  1.42E+02       188            2.01E-04 
      5104    54.651  1.95E+02       191            1.99E-04 
      5105    54.658  2.83E+02       194            1.96E-04 
      5106    54.666  1.82E+02       197            2.00E-04 
      5107    54.674  2.40E+02       200            1.98E-04 
      5108    54.682  8.80E+01       204            2.04E-04 
      5109    54.689  2.18E+02       208            1.98E-04 
      5110    54.697  1.43E+02       212            2.02E-04 
      5111    54.705  3.17E+02       216            1.95E-04 
      5112    54.713  1.19E+02       221            2.02E-04 
      5113    54.720  1.81E+02       226            2.00E-04 
      5114    54.728  1.79E+02       232            2.00E-04 
      5115    54.736  3.30E+01       237            2.06E-04 
      5116    54.744  1.82E+02       244            2.00E-04 
      5117    54.752  1.69E+02       251            2.01E-04 
      5118    54.759  2.91E+02       259            1.96E-04 
      5119    54.767  1.66E+02       267            2.01E-04 
      5120    54.775  2.16E+02       276            1.99E-04 
      5121    54.783  2.43E+02       286            1.98E-04 
      5122    54.790  1.74E+02       297            2.00E-04 
      5123    54.798  2.09E+02       310            1.99E-04 
      5124    54.806  1.91E+02       324            2.00E-04 
      5125    54.814  3.21E+02       340            1.95E-04 
      5126    54.821  2.78E+02       358            1.96E-04 
      5127    54.829  2.95E+02       380            1.96E-04 
      5128    54.837  3.27E+02       406            1.95E-04 
      5129    54.845  3.62E+02       439            1.93E-04 
      5130    54.852  4.66E+02       480            1.89E-04 
      5131    54.860  5.83E+02       533            1.85E-04 
      5132    54.868  6.51E+02       602            1.83E-04 
      5133    54.876  7.81E+02       693            1.79E-04 
      5134    54.884  8.65E+02       813            1.76E-04 
      5135    54.891  8.84E+02       969            1.76E-04 
      5136    54.899  1.15E+03  1.17E+03            1.68E-04 
      5137    54.907  1.28E+03  1.43E+03            1.64E-04 
      5138    54.915  1.67E+03  1.75E+03            1.54E-04 
      5139    54.922  2.00E+03  2.14E+03            1.47E-04 
      5140    54.930  2.43E+03  2.61E+03            1.38E-04 
      5141    54.938  3.16E+03  3.16E+03            1.26E-04 
      5142    54.946  3.75E+03  3.78E+03            1.17E-04 
      5143    54.953  4.50E+03  4.46E+03            1.07E-04 
      5144    54.961  5.16E+03  5.19E+03            1.00E-04 
      5145    54.969  5.87E+03  5.92E+03            9.36E-05 
      5146    54.977  6.47E+03  6.64E+03            8.87E-05 
      5147    54.985  7.15E+03  7.28E+03            8.36E-05 
      5148    54.992  7.40E+03  7.81E+03            8.19E-05 
      5149    55.000  7.76E+03  8.16E+03            7.96E-05 
      5150    55.008  8.00E+03  8.31E+03            7.81E-05 
      5151    55.016  7.91E+03  8.23E+03            7.86E-05 
      5152    55.023  7.50E+03  7.93E+03            8.12E-05 
      5153    55.031  7.15E+03  7.45E+03            8.36E-05 
      5154    55.039  6.65E+03  6.84E+03            8.73E-05 
      5155    55.047  5.90E+03  6.14E+03            9.34E-05 
      5156    55.054  5.43E+03  5.40E+03            9.78E-05 
      5157    55.062  4.75E+03  4.68E+03            1.05E-04 
      5158    55.070  3.80E+03  3.98E+03            1.16E-04 
      5159    55.078  3.44E+03  3.34E+03            1.21E-04 
      5160    55.085  2.76E+03  2.77E+03            1.32E-04 
      5161    55.093  2.20E+03  2.28E+03            1.43E-04 
      5162    55.101  1.92E+03  1.87E+03            1.49E-04 
      5163    55.109  1.46E+03  1.52E+03            1.60E-04 
      5164    55.117  1.44E+03  1.25E+03            1.60E-04 
      5165    55.124  1.23E+03  1.03E+03            1.66E-04 
      5166    55.132  1.01E+03       861            1.72E-04 
      5167    55.140  8.31E+02       731            1.78E-04 
      5168    55.148  8.59E+02       633            1.77E-04 
      5169    55.155  7.09E+02       558            1.82E-04 
      5170    55.163  5.53E+02       500            1.87E-04 
      5171    55.171  4.07E+02       456            1.92E-04 
      5172    55.179  4.21E+02       422            1.92E-04 
      5173    55.186  4.88E+02       394            1.89E-04 
      5174    55.194  4.86E+02       371            1.89E-04 
      5175    55.202  3.97E+02       352            1.93E-04 
      5176    55.210  4.60E+02       335            1.90E-04 
      5177    55.218  4.67E+02       321            1.90E-04 
      5178    55.225  1.60E+02       308            2.02E-04 
      5179    55.233  3.01E+02       297            1.96E-04 
      5180    55.241  2.94E+02       286            1.96E-04 
      5181    55.249  3.72E+02       277            1.94E-04 
      5182    55.256  3.38E+02       268            1.95E-04 
      5183    55.264  2.08E+02       261            2.00E-04 
      5184    55.272  3.27E+02       254            1.95E-04 
      5185    55.280  2.04E+02       247            2.00E-04 
      5186    55.287  3.73E+02       241            1.94E-04 
      5187    55.295  1.61E+02       236            2.02E-04 
      5188    55.303  1.77E+02       230            2.01E-04 
      5189    55.311  2.25E+02       226            1.99E-04 
      5190    55.318  2.49E+02       221            1.98E-04 
      5191    55.326  2.67E+02       217            1.98E-04 
      5192    55.334  2.79E+02       214            1.97E-04 
      5193    55.342  3.18E+02       210            1.96E-04 
      5194    55.350  2.71E+02       207            1.98E-04 
      5195    55.357 -2.80E+01       204            2.10E-04 
      5196    55.365  2.37E+02       201            1.99E-04 
      5197    55.373  1.95E+02       198            2.01E-04 
      5198    55.381  1.64E+02       196            2.02E-04 
      5199    55.388  1.26E+02       194            2.03E-04 
      5200    55.396  2.84E+02       191            1.97E-04 
      5201    55.404  1.52E+02       189            2.02E-04 
      5202    55.412  1.18E+02       188            2.04E-04 
      5203    55.419  1.27E+02       186            2.03E-04 
      5204    55.427  1.82E+02       184            2.01E-04 
      5205    55.435  2.29E+02       183            1.99E-04 
      5206    55.443  1.27E+02       181            2.04E-04 
      5207    55.451  1.03E+02       180            2.05E-04 
      5208    55.458  2.89E+02       179            1.97E-04 
      5209    55.466  1.05E+02       178            2.04E-04 
      5210    55.474  4.80E+01       176            2.07E-04 
      5211    55.482  9.40E+01       175            2.05E-04 
      5212    55.489  2.15E+02       174            2.00E-04 
      5213    55.497  2.49E+02       174            1.99E-04 
      5214    55.505  1.20E+02       173            2.04E-04 
      5215    55.513  1.77E+02       172            2.02E-04 
      5216    55.520  2.66E+02       171            1.98E-04 
      5217    55.528  1.41E+02       171            2.03E-04 
      5218    55.536  1.09E+02       170            2.04E-04 
      5219    55.544  2.82E+02       170            1.97E-04 
      5220    55.552  8.70E+01       169            2.05E-04 
      5221    55.559  1.78E+02       169            2.02E-04 
      5222    55.567  1.86E+02       168            2.01E-04 
      5223    55.575  1.30E+02       168            2.04E-04 
      5224    55.583  2.08E+02       168            2.00E-04 
      5225    55.590  1.79E+02       168            2.02E-04 
      5226    55.598  1.68E+02       167            2.02E-04 
      5227    55.606 -3.40E+01       167            2.11E-04 
      5228    55.614  7.30E+01       167            2.06E-04 
      5229    55.621  1.08E+02       167            2.05E-04 
      5230    55.629  2.31E+02       167            2.00E-04 
      5231    55.637  1.91E+02       167            2.01E-04 
      5232    55.645  2.90E+02       167            1.97E-04 
      5233    55.652  4.14E+02       167            1.93E-04 
      5234    55.660  1.46E+02       168            2.03E-04 
      5235    55.668  1.06E+02       168            2.05E-04 
      5236    55.676  5.80E+01       168            2.07E-04 
      5237    55.684  2.16E+02       169            2.00E-04 
      5238    55.691  4.10E+01       169            2.08E-04 
      5239    55.699  1.31E+02       169            2.04E-04 
      5240    55.707  1.07E+02       170            2.05E-04 
      5241    55.715  4.40E+01       171            2.08E-04 
      5242    55.722  2.43E+02       171            1.99E-04 
      5243    55.730  2.29E+02       172            2.00E-04 
      5244    55.738  2.63E+02       173            1.99E-04 
      5245    55.746  1.79E+02       173            2.02E-04 
      5246    55.753  1.20E+02       174            2.04E-04 
      5247    55.761  1.37E+02       175            2.04E-04 
      5248    55.769  1.46E+02       176            2.03E-04 
      5249    55.777  2.45E+02       177            1.99E-04 
      5250    55.785  5.80E+01       179            2.07E-04 
      5251    55.792  1.35E+02       180            2.04E-04 
      5252    55.800  9.40E+01       181            2.06E-04 
      5253    55.808  9.90E+01       183            2.05E-04 
      5254    55.816  1.42E+02       185            2.04E-04 
      5255    55.823  1.62E+02       186            2.03E-04 
      5256    55.831  1.64E+02       188            2.03E-04 
      5257    55.839  2.13E+02       190            2.01E-04 
      5258    55.847  2.09E+02       193            2.01E-04 
      5259    55.854  1.82E+02       195            2.02E-04 
      5260    55.862  1.11E+02       198            2.05E-04 
      5261    55.870  2.88E+02       200            1.98E-04 
      5262    55.878  1.12E+02       203            2.05E-04 
      5263    55.885  1.30E+01       207            2.09E-04 
      5264    55.893  4.40E+01       210            2.08E-04 
      5265    55.901  3.05E+02       214            1.97E-04 
      5266    55.909  1.83E+02       218            2.02E-04 
      5267    55.917  2.19E+02       223            2.01E-04 
      5268    55.924  2.24E+02       228            2.00E-04 
      5269    55.932  2.03E+02       233            2.01E-04 
      5270    55.940  1.93E+02       239            2.02E-04 
      5271    55.948  1.48E+02       245            2.04E-04 
      5272    55.955  1.83E+02       252            2.02E-04 
      5273    55.963  3.58E+02       260            1.95E-04 
      5274    55.971  1.50E+02       268            2.04E-04 
      5275    55.979  1.26E+02       278            2.05E-04 
      5276    55.986  2.73E+02       288            1.99E-04 
      5277    55.994  3.52E+02       300            1.96E-04 
      5278    56.002  3.23E+02       314            1.97E-04 
      5279    56.010  3.61E+02       331            1.95E-04 
      5280    56.018  3.03E+02       351            1.97E-04 
      5281    56.025  3.73E+02       375            1.95E-04 
      5282    56.033  4.92E+02       405            1.90E-04 
      5283    56.041  4.31E+02       445            1.93E-04 
      5284    56.049  4.77E+02       496            1.91E-04 
      5285    56.056  5.36E+02       562            1.89E-04 
      5286    56.064  6.74E+02       650            1.84E-04 
      5287    56.072  7.65E+02       765            1.81E-04 
      5288    56.080  8.17E+02       913            1.79E-04 
      5289    56.087  1.12E+03  1.10E+03            1.70E-04 
      5290    56.095  1.33E+03  1.34E+03            1.64E-04 
      5291    56.103  1.57E+03  1.63E+03            1.58E-04 
      5292    56.111  1.83E+03  1.98E+03            1.52E-04 
      5293    56.118  2.35E+03  2.39E+03            1.41E-04 
      5294    56.126  2.95E+03  2.86E+03            1.30E-04 
      5295    56.134  3.32E+03  3.38E+03            1.24E-04 
      5296    56.142  4.04E+03  3.93E+03            1.14E-04 
      5297    56.150  4.60E+03  4.51E+03            1.07E-04 
      5298    56.157  4.97E+03  5.08E+03            1.03E-04 
      5299    56.165  5.68E+03  5.61E+03            9.58E-05 
      5300    56.173  5.98E+03  6.08E+03            9.32E-05 
      5301    56.181  6.13E+03  6.42E+03            9.19E-05 
      5302    56.188  6.32E+03  6.62E+03            9.03E-05 
      5303    56.196  6.27E+03  6.65E+03            9.07E-05 
      5304    56.204  6.44E+03  6.50E+03            8.93E-05 
      5305    56.212  6.07E+03  6.19E+03            9.24E-05 
      5306    56.219  5.60E+03  5.76E+03            9.66E-05 
      5307    56.227  5.02E+03  5.24E+03            1.02E-04 
      5308    56.235  4.68E+03  4.67E+03            1.06E-04 
      5309    56.243  4.11E+03  4.09E+03            1.13E-04 
      5310    56.251  3.58E+03  3.53E+03            1.20E-04 
      5311    56.258  3.15E+03  2.99E+03            1.27E-04 
      5312    56.266  2.70E+03  2.51E+03            1.34E-04 
      5313    56.274  2.18E+03  2.08E+03            1.44E-04 
      5314    56.282  1.93E+03  1.72E+03            1.50E-04 
      5315    56.289  1.66E+03  1.41E+03            1.56E-04 
      5316    56.297  1.43E+03  1.16E+03            1.62E-04 
      5317    56.305  1.20E+03       954            1.68E-04 
      5318    56.313  9.06E+02       795            1.77E-04 
      5319    56.320  9.15E+02       672            1.77E-04 
      5320    56.328  8.09E+02       577            1.80E-04 
      5321    56.336  6.96E+02       504            1.84E-04 
      5322    56.344  8.07E+02       449            1.80E-04 
      5323    56.352  6.99E+02       407            1.84E-04 
      5324    56.359  5.36E+02       374            1.89E-04 
      5325    56.367  5.28E+02       348            1.90E-04 
      5326    56.375  4.66E+02       327            1.92E-04 
      5327    56.383  5.17E+02       309            1.90E-04 
      5328    56.390  5.91E+02       294            1.87E-04 
      5329    56.398  4.37E+02       282            1.93E-04 
      5330    56.406  3.59E+02       271            1.96E-04 
      5331    56.414  2.72E+02       261            1.99E-04 
      5332    56.421  2.78E+02       252            1.99E-04 
      5333    56.429  4.01E+02       244            1.94E-04 
      5334    56.437  3.47E+02       236            1.96E-04 
      5335    56.445  4.34E+02       230            1.93E-04 
      5336    56.452  2.14E+02       223            2.02E-04 
      5337    56.460  3.79E+02       218            1.95E-04 
      5338    56.468  2.93E+02       213            1.99E-04 
      5339    56.476  2.27E+02       208            2.01E-04 
      5340    56.484  2.25E+02       203            2.01E-04 
      5341    56.491  2.01E+02       199            2.02E-04 
      5342    56.499  3.32E+02       195            1.97E-04 
      5343    56.507  2.75E+02       192            1.99E-04 
      5344    56.515  1.85E+02       189            2.03E-04 
      5345    56.522  1.51E+02       185            2.04E-04 
      5346    56.530  2.59E+02       183            2.00E-04 
      5347    56.538  1.21E+02       180            2.06E-04 
      5348    56.546  1.64E+02       177            2.04E-04 
      5349    56.553  6.10E+01       175            2.08E-04 
      5350    56.561  2.06E+02       173            2.02E-04 
      5351    56.569  3.07E+02       171            1.98E-04 
      5352    56.577  3.40E+02       169            1.97E-04 
      5353    56.585  1.77E+02       167            2.04E-04 
      5354    56.592  3.90E+01       165            2.09E-04 
      5355    56.600  1.99E+02       163            2.03E-04 
      5356    56.608  2.83E+02       162            1.99E-04 
      5357    56.616  1.04E+02       160            2.07E-04 
      5358    56.623  1.40E+02       159            2.05E-04 
      5359    56.631  8.30E+01       158            2.08E-04 
      5360    56.639  1.00E+02       156            2.07E-04 
      5361    56.647  1.90E+01       155            2.10E-04 
      5362    56.654  9.00E+01       154            2.07E-04 
      5363    56.662  9.80E+01       153            2.07E-04 
      5364    56.670  1.32E+02       152            2.06E-04 
      5365    56.678  2.00E+01       151            2.10E-04 
      5366    56.685  2.01E+02       150            2.03E-04 
      5367    56.693  1.70E+02       149            2.04E-04 
      5368    56.701  1.28E+02       148            2.06E-04 
      5369    56.709  2.21E+02       147            2.02E-04 
      5370    56.717  1.94E+02       147            2.03E-04 
      5371    56.724  5.00E+00       146            2.11E-04 
      5372    56.732  2.35E+02       145            2.01E-04 
      5373    56.740  1.11E+02       144            2.07E-04 
      5374    56.748  3.01E+02       144            1.99E-04 
      5375    56.755  9.00E+01       143            2.07E-04 
      5376    56.763 -1.00E+00       142            2.12E-04 
      5377    56.771  1.87E+02       142            2.03E-04 
      5378    56.779  1.76E+02       141            2.04E-04 
      5379    56.786  1.22E+02       141            2.06E-04 
      5380    56.794  4.90E+01       140            2.09E-04 
      5381    56.802  1.74E+02       140            2.04E-04 
      5382    56.810  2.31E+02       139            2.02E-04 
      5383    56.818  1.93E+02       139            2.03E-04 
      5384    56.825  1.45E+02       138            2.05E-04 
      5385    56.833  1.36E+02       138            2.06E-04 
      5386    56.841  6.70E+01       138            2.09E-04 
      5387    56.849  1.07E+02       137            2.07E-04 
      5388    56.856  1.35E+02       137            2.06E-04 
      5389    56.864  8.20E+01       137            2.08E-04 
      5390    56.872  2.63E+02       136            2.00E-04 
      5391    56.880  1.06E+02       136            2.07E-04 
      5392    56.887  1.59E+02       136            2.05E-04 
      5393    56.895  5.90E+01       136            2.09E-04 
      5394    56.903  5.50E+01       136            2.09E-04 
      5395    56.911  1.50E+02       136            2.05E-04 
      5396    56.919  1.27E+02       136            2.06E-04 
      5397    56.926  7.20E+01       136            2.09E-04 
      5398    56.934  7.40E+01       137            2.08E-04 
      5399    56.942  1.93E+02       137            2.03E-04 
      5400    56.950  1.40E+02       138            2.06E-04 
      5401    56.957  1.63E+02       139            2.05E-04 
      5402    56.965  1.19E+02       140            2.07E-04 
      5403    56.973  1.48E+02       141            2.05E-04 
      5404    56.981  1.38E+02       142            2.06E-04 
      5405    56.988  1.59E+02       143            2.05E-04 
      5406    56.996  2.07E+02       145            2.03E-04 
      5407    57.004  4.90E+01       145            2.10E-04 
      5408    57.012  1.81E+02       146            2.04E-04 
      5409    57.019  1.85E+02       146            2.04E-04 
      5410    57.027  1.67E+02       146            2.05E-04 
      5411    57.035  1.30E+02       146            2.06E-04 
      5412    57.043  2.11E+02       145            2.03E-04 
      5413    57.051  1.89E+02       143            2.04E-04 
      5414    57.058  1.60E+02       142            2.05E-04 
      5415    57.066  9.00E+01       140            2.08E-04 
      5416    57.074  1.59E+02       139            2.05E-04 
      5417    57.082  1.16E+02       162            2.07E-04 
      5418    57.089  7.80E+01       162            2.09E-04 
      5419    57.097  2.80E+01       163            2.11E-04 
      5420    57.105  1.80E+02       164            2.04E-04 
      5421    57.113  1.48E+02       166            2.06E-04 
      5422    57.120  2.16E+02       169            2.03E-04 
      5423    57.128  2.67E+02       174            2.01E-04 
      5424    57.136  1.32E+02       180            2.06E-04 
      5425    57.144  1.54E+02       188            2.05E-04 
      5426    57.152  1.50E+02       199            2.06E-04 
      5427    57.159  2.56E+02       214            2.01E-04 
      5428    57.167  1.42E+02       234            2.06E-04 
      5429    57.175  2.29E+02       259            2.02E-04 
      5430    57.183  1.95E+02       293            2.04E-04 
      5431    57.190  3.38E+02       336            1.98E-04 
      5432    57.198  4.49E+02       390            1.94E-04 
      5433    57.206  4.36E+02       456            1.94E-04 
      5434    57.214  5.17E+02       538            1.91E-04 
      5435    57.221  6.15E+02       635            1.88E-04 
      5436    57.229  6.90E+02       750            1.85E-04 
      5437    57.237  6.59E+02       883            1.86E-04 
      5438    57.245  1.06E+03  1.03E+03            1.73E-04 
      5439    57.252  1.15E+03  1.20E+03            1.71E-04 
      5440    57.260  1.31E+03  1.38E+03            1.66E-04 
      5441    57.268  1.47E+03  1.57E+03            1.62E-04 
      5442    57.276  1.66E+03  1.77E+03            1.57E-04 
      5443    57.284  2.05E+03  1.96E+03            1.48E-04 
      5444    57.291  2.21E+03  2.15E+03            1.44E-04 
      5445    57.299  2.39E+03  2.33E+03            1.41E-04 
      5446    57.307  2.43E+03  2.49E+03            1.40E-04 
      5447    57.315  2.53E+03  2.62E+03            1.38E-04 
      5448    57.322  2.59E+03  2.71E+03            1.37E-04 
      5449    57.330  2.62E+03  2.76E+03            1.36E-04 
      5450    57.338  2.80E+03  2.77E+03            1.33E-04 
      5451    57.346  2.65E+03  2.74E+03            1.36E-04 
      5452    57.353  2.55E+03  2.66E+03            1.38E-04 
      5453    57.361  2.48E+03  2.55E+03            1.39E-04 
      5454    57.369  2.39E+03  2.41E+03            1.41E-04 
      5455    57.377  2.14E+03  2.24E+03            1.46E-04 
      5456    57.385  1.99E+03  2.05E+03            1.49E-04 
      5457    57.392  1.71E+03  1.86E+03            1.56E-04 
      5458    57.400  1.45E+03  1.66E+03            1.63E-04 
      5459    57.408  1.36E+03  1.46E+03            1.65E-04 
      5460    57.416  1.35E+03  1.28E+03            1.65E-04 
      5461    57.423  1.14E+03  1.10E+03            1.71E-04 
      5462    57.431  9.94E+02       946            1.75E-04 
      5463    57.439  7.83E+02       805            1.82E-04 
      5464    57.447  7.36E+02       682            1.84E-04 
      5465    57.454  7.29E+02       576            1.84E-04 
      5466    57.462  4.63E+02       486            1.94E-04 
      5467    57.470  4.75E+02       412            1.93E-04 
      5468    57.478  4.39E+02       352            1.94E-04 
      5469    57.485  3.76E+02       304            1.97E-04 
      5470    57.493  3.63E+02       266            1.97E-04 
      5471    57.501  2.96E+02       237            2.00E-04 
      5472    57.509  3.28E+02       214            1.99E-04 
      5473    57.517  3.54E+02       196            1.98E-04 
      5474    57.524  3.15E+02       183            1.99E-04 
      5475    57.532  4.00E+02       173            1.96E-04 
      5476    57.540  3.04E+02       166            2.00E-04 
      5477    57.548  2.88E+02       160            2.00E-04 
      5478    57.555  1.04E+02       155            2.08E-04 
      5479    57.563  2.29E+02       152            2.03E-04 
      5480    57.571  1.12E+02       149            2.08E-04 
      5481    57.579  2.23E+02       147            2.03E-04 
      5482    57.586  1.84E+02       145            2.05E-04 
      5483    57.594  1.06E+02       119            2.08E-04 
      5484    57.602  2.98E+02       119            2.00E-04 
      5485    57.610  4.60E+01       119            2.11E-04 
      5486    57.618  2.19E+02       119            2.03E-04 
      5487    57.625  3.04E+02       119            2.00E-04 
      5488    57.633  8.20E+01       119            2.09E-04 
      5489    57.641  3.71E+02       119            1.97E-04 
      5490    57.649  1.70E+02       119            2.05E-04 
      5491    57.656  8.20E+01       119            2.09E-04 
      5492    57.664  1.40E+02       119            2.07E-04 
      5493    57.672 -9.40E+01       119            2.17E-04 
      5494    57.680  1.86E+02       119            2.05E-04 
      5495    57.687  4.90E+01       119            2.11E-04 
      5496    57.695  4.80E+01       119            2.11E-04 
      5497    57.703  2.90E+01       119            2.12E-04 
      5498    57.711  1.34E+02       119            2.07E-04 
      5499    57.719  1.86E+02       119            2.05E-04 
      5500    57.726  1.45E+02       119            2.07E-04 
      5501    57.734  7.50E+01       119            2.10E-04 
      5502    57.742  1.56E+02       119            2.06E-04 
      5503    57.750  1.61E+02       119            2.06E-04 
      5504    57.757  2.97E+02       119            2.00E-04 
      5505    57.765  8.30E+01       119            2.09E-04 
      5506    57.773  8.80E+01       119            2.09E-04 
      5507    57.781  1.72E+02       119            2.06E-04 
      5508    57.788  1.67E+02       119            2.06E-04 
      5509    57.796  7.20E+01       119            2.10E-04 
      5510    57.804  1.75E+02       119            2.06E-04 
      5511    57.812  8.00E+01       119            2.10E-04 
      5512    57.819  6.90E+01       119            2.10E-04 
      5513    57.827  1.31E+02       119            2.07E-04 
      5514    57.835  1.25E+02       119            2.08E-04 
      5515    57.843  9.30E+01       119            2.09E-04 
      5516    57.851  7.00E+01       119            2.10E-04 
      5517    57.858  3.20E+01       119            2.12E-04 
      5518    57.866  1.05E+02       119            2.09E-04 
      5519    57.874  9.10E+01       119            2.09E-04 
      5520    57.882  2.90E+01       119            2.12E-04 
      5521    57.889  6.00E+01       119            2.11E-04 
      5522    57.897  1.77E+02       119            2.06E-04 
      5523    57.905  1.79E+02       119            2.05E-04 
      5524    57.913  9.70E+01       119            2.09E-04 
      5525    57.920  6.40E+01       119            2.10E-04 
      5526    57.928  1.43E+02       119            2.07E-04 
      5527    57.936  1.90E+02       119            2.05E-04 
      5528    57.944  1.94E+02       119            2.05E-04 
      5529    57.952  1.11E+02       119            2.08E-04 
      5530    57.959  4.50E+01       119            2.11E-04 
      5531    57.967  7.00E+01       119            2.10E-04 
      5532    57.975  9.00E+01       119            2.09E-04 
      5533    57.983  1.61E+02       119            2.06E-04 
      5534    57.990  7.00E+00       119            2.13E-04 
      5535    57.998  5.90E+01       119            2.11E-04 
      5536    58.006  9.00E+00       119            2.13E-04 
      5537    58.014  8.30E+01       119            2.10E-04 
      5538    58.021  6.80E+01       119            2.10E-04 
      5539    58.029  6.50E+01       132            2.11E-04 
      5540    58.037  3.50E+01       132            2.12E-04 
      5541    58.045 -2.90E+01       132            2.15E-04 
      5542    58.052  2.70E+01       132            2.12E-04 
      5543    58.060  8.00E+00       133            2.13E-04 
      5544    58.068  1.09E+02       133            2.09E-04 
      5545    58.076  3.20E+01       133            2.12E-04 
      5546    58.084  2.39E+02       133            2.03E-04 
      5547    58.091  7.90E+01       133            2.10E-04 
      5548    58.099  1.69E+02       133            2.06E-04 
      5549    58.107  2.90E+01       133            2.12E-04 
      5550    58.115  2.08E+02       133            2.05E-04 
      5551    58.122  1.65E+02       133            2.06E-04 
      5552    58.130  2.08E+02       133            2.05E-04 
      5553    58.138  1.47E+02       134            2.07E-04 
      5554    58.146  6.50E+01       134            2.11E-04 
      5555    58.153  5.20E+01       131            2.11E-04 
      5556    58.161  1.39E+02       131            2.08E-04 
      5557    58.169  1.35E+02       132            2.08E-04 
      5558    58.177  4.40E+01       132            2.12E-04 
      5559    58.185  2.02E+02       132            2.05E-04 
      5560    58.192  1.30E+02       132            2.08E-04 
      5561    58.200 -1.90E+01       132            2.15E-04 
      5562    58.208  1.46E+02       133            2.07E-04 
      5563    58.216  1.39E+02       133            2.08E-04 
      5564    58.223  1.68E+02       133            2.06E-04 
      5565    58.231  1.01E+02       133            2.09E-04 
      5566    58.239  6.20E+01       134            2.11E-04 
      5567    58.247  2.60E+01       134            2.13E-04 
      5568    58.254  2.13E+02       134            2.05E-04 
      5569    58.262  1.22E+02       134            2.08E-04 
      5570    58.270  5.00E+01       135            2.12E-04 
      5571    58.278  6.90E+01       135            2.11E-04 
      5572    58.285  7.90E+01       135            2.10E-04 
      5573    58.293  6.70E+01       135            2.11E-04 
      5574    58.301  9.40E+01       136            2.10E-04 
      5575    58.309  6.00E+01       136            2.11E-04 
      5576    58.317  1.76E+02       136            2.06E-04 
      5577    58.324  1.99E+02       137            2.05E-04 
      5578    58.332  2.18E+02       137            2.05E-04 
      5579    58.340  1.67E+02       137            2.07E-04 
      5580    58.348  1.06E+02       138            2.09E-04 
      5581    58.355  4.90E+01       138            2.12E-04 
      5582    58.363  2.73E+02       139            2.02E-04 
      5583    58.371  1.20E+02       139            2.09E-04 
      5584    58.379  1.10E+02       139            2.09E-04 
      5585    58.386  6.60E+01       140            2.11E-04 
      5586    58.394  1.71E+02       140            2.07E-04 
      5587    58.402  1.60E+02       141            2.07E-04 
      5588    58.410  1.36E+02       141            2.08E-04 
      5589    58.418  1.05E+02       141            2.09E-04 
      5590    58.425  1.81E+02       142            2.06E-04 
      5591    58.433  2.18E+02       142            2.05E-04 
      5592    58.441  9.50E+01       143            2.10E-04 
      5593    58.449  1.11E+02       143            2.09E-04 
      5594    58.456  1.14E+02       144            2.09E-04 
      5595    58.464  1.30E+02       145            2.08E-04 
      5596    58.472  2.40E+01       145            2.13E-04 
      5597    58.480  1.12E+02       146            2.09E-04 
      5598    58.487  4.10E+01       146            2.12E-04 
      5599    58.495  1.51E+02       147            2.08E-04 
      5600    58.503  6.90E+01       148            2.11E-04 
      5601    58.511  1.56E+02       148            2.07E-04 
      5602    58.519  5.10E+01       149            2.12E-04 
      5603    58.526  6.00E+01       154            2.12E-04 
      5604    58.534  1.83E+02       155            2.06E-04 
      5605    58.542  2.46E+02       155            2.04E-04 
      5606    58.550  9.00E+01       156            2.10E-04 
      5607    58.557  2.13E+02       157            2.05E-04 
      5608    58.565  1.21E+02       158            2.09E-04 
      5609    58.573  1.64E+02       159            2.07E-04 
      5610    58.581  1.37E+02       160            2.08E-04 
      5611    58.588  1.14E+02       161            2.09E-04 
      5612    58.596  1.18E+02       162            2.09E-04 
      5613    58.604  6.00E+00       163            2.14E-04 
      5614    58.612  1.34E+02       165            2.09E-04 
      5615    58.619  6.40E+01       166            2.12E-04 
      5616    58.627  2.00E+02       167            2.06E-04 
      5617    58.635  3.30E+01       169            2.13E-04 
      5618    58.643  2.20E+01       170            2.14E-04 
      5619    58.651  8.20E+01       172            2.11E-04 
      5620    58.658  1.81E+02       173            2.07E-04 
      5621    58.666  2.13E+02       175            2.05E-04 
      5622    58.674  7.50E+01       176            2.11E-04 
      5623    58.682  1.56E+02       178            2.08E-04 
      5624    58.689  1.39E+02       180            2.08E-04 
      5625    58.697  2.83E+02       182            2.02E-04 
      5626    58.705  1.98E+02       184            2.06E-04 
      5627    58.713 -6.70E+01       186            2.18E-04 
      5628    58.720  2.39E+02       189            2.04E-04 
      5629    58.728  1.89E+02       191            2.06E-04 
      5630    58.736  1.83E+02       193            2.07E-04 
      5631    58.744  1.05E+02       196            2.10E-04 
      5632    58.752  2.63E+02       199            2.03E-04 
      5633    58.759  9.90E+01       202            2.10E-04 
      5634    58.767  1.01E+02       205            2.10E-04 
      5635    58.775  1.37E+02       208            2.09E-04 
      5636    58.783  1.96E+02       212            2.06E-04 
      5637    58.790  1.03E+02       215            2.10E-04 
      5638    58.798  1.95E+02       219            2.06E-04 
      5639    58.806  1.97E+02       224            2.06E-04 
      5640    58.814  2.52E+02       228            2.04E-04 
      5641    58.821  2.09E+02       233            2.06E-04 
      5642    58.829  2.76E+02       238            2.03E-04 
      5643    58.837  1.33E+02       243            2.09E-04 
      5644    58.845  1.87E+02       249            2.07E-04 
      5645    58.852  2.79E+02       255            2.03E-04 
      5646    58.860  2.71E+02       262            2.03E-04 
      5647    58.868  1.07E+02       269            2.10E-04 
      5648    58.876  1.96E+02       277            2.06E-04 
      5649    58.884  1.71E+02       285            2.07E-04 
      5650    58.891  2.57E+02       294            2.04E-04 
      5651    58.899  2.09E+02       304            2.06E-04 
      5652    58.907  1.41E+02       315            2.09E-04 
      5653    58.915  3.26E+02       326            2.01E-04 
      5654    58.922  1.68E+02       339            2.08E-04 
      5655    58.930  2.03E+02       353            2.06E-04 
      5656    58.938  2.75E+02       368            2.03E-04 
      5657    58.946  2.71E+02       386            2.03E-04 
      5658    58.953  3.04E+02       405            2.02E-04 
      5659    58.961  2.75E+02       428            2.03E-04 
      5660    58.969  2.16E+02       454            2.06E-04 
      5661    58.977  4.72E+02       485            1.95E-04 
      5662    58.985  3.91E+02       523            1.98E-04 
      5663    58.992  4.00E+02       570            1.98E-04 
      5664    59.000  4.48E+02       630            1.96E-04 
      5665    59.008  5.66E+02       707            1.92E-04 
      5666    59.016  6.17E+02       806            1.90E-04 
      5667    59.023  6.77E+02       936            1.88E-04 
      5668    59.031  9.98E+02  1.10E+03            1.77E-04 
      5669    59.039  1.14E+03  1.32E+03            1.73E-04 
      5670    59.047  1.50E+03  1.60E+03            1.63E-04 
      5671    59.054  1.81E+03  1.94E+03            1.55E-04 
      5672    59.062  2.41E+03  2.36E+03            1.42E-04 
      5673    59.070  3.01E+03  2.88E+03            1.31E-04 
      5674    59.078  3.79E+03  3.48E+03            1.19E-04 
      5675    59.085  4.69E+03  4.18E+03            1.07E-04 
      5676    59.093  5.64E+03  4.96E+03            9.73E-05 
      5677    59.101  6.45E+03  5.81E+03            9.02E-05 
      5678    59.109  7.52E+03  6.72E+03            8.22E-05 
      5679    59.117  8.08E+03  7.64E+03            7.86E-05 
      5680    59.124  9.20E+03  8.55E+03            7.22E-05 
      5681    59.132  9.78E+03  9.38E+03            6.94E-05 
      5682    59.140  1.04E+04  1.01E+04            6.66E-05 
      5683    59.148  1.07E+04  1.06E+04            6.52E-05 
      5684    59.155  1.04E+04  1.09E+04            6.65E-05 
      5685    59.163  1.03E+04  1.09E+04            6.67E-05 
      5686    59.171  1.01E+04  1.07E+04            6.79E-05 
      5687    59.179  9.36E+03  1.02E+04            7.14E-05 
      5688    59.186  9.00E+03  9.51E+03            7.33E-05 
      5689    59.194  8.12E+03  8.69E+03            7.84E-05 
      5690    59.202  7.22E+03  7.80E+03            8.43E-05 
      5691    59.210  6.39E+03  6.87E+03            9.06E-05 
      5692    59.218  5.20E+03  5.96E+03            1.02E-04 
      5693    59.225  4.67E+03  5.10E+03            1.07E-04 
      5694    59.233  3.88E+03  4.31E+03            1.17E-04 
      5695    59.241  3.44E+03  3.60E+03            1.24E-04 
      5696    59.249  3.07E+03  2.98E+03            1.30E-04 
      5697    59.256  2.57E+03  2.45E+03            1.39E-04 
      5698    59.264  2.31E+03  2.02E+03            1.44E-04 
      5699    59.272  1.99E+03  1.66E+03            1.51E-04 
      5700    59.280  1.73E+03  1.38E+03            1.57E-04 
      5701    59.287  1.48E+03  1.16E+03            1.63E-04 
      5702    59.295  1.45E+03       985            1.64E-04 
      5703    59.303  1.29E+03       852            1.69E-04 
      5704    59.311  1.06E+03       750            1.76E-04 
      5705    59.319  1.04E+03       672            1.76E-04 
      5706    59.326  1.09E+03       612            1.75E-04 
      5707    59.334  9.17E+02       565            1.80E-04 
      5708    59.342  7.30E+02       529            1.86E-04 
      5709    59.350  9.69E+02       499            1.78E-04 
      5710    59.357  8.66E+02       475            1.82E-04 
      5711    59.365  6.64E+02       456            1.89E-04 
      5712    59.373  6.64E+02       439            1.89E-04 
      5713    59.381  8.47E+02       425            1.82E-04 
      5714    59.388  7.36E+02       413            1.86E-04 
      5715    59.396  6.21E+02       404            1.90E-04 
      5716    59.404  5.89E+02       396            1.92E-04 
      5717    59.412  7.49E+02       389            1.86E-04 
      5718    59.419  6.61E+02       385            1.89E-04 
      5719    59.427  7.52E+02       382            1.86E-04 
      5720    59.435  6.04E+02       380            1.91E-04 
      5721    59.443  5.05E+02       381            1.95E-04 
      5722    59.451  5.41E+02       383            1.93E-04 
      5723    59.458  5.87E+02       387            1.92E-04 
      5724    59.466  5.98E+02       395            1.91E-04 
      5725    59.474  5.16E+02       405            1.94E-04 
      5726    59.482  6.50E+02       419            1.89E-04 
      5727    59.489  5.40E+02       438            1.93E-04 
      5728    59.497  6.67E+02       464            1.89E-04 
      5729    59.505  6.79E+02       497            1.88E-04 
      5730    59.513  5.83E+02       541            1.92E-04 
      5731    59.520  6.97E+02       598            1.88E-04 
      5732    59.528  6.61E+02       671            1.89E-04 
      5733    59.536  7.55E+02       765            1.86E-04 
      5734    59.544  7.66E+02       882            1.85E-04 
      5735    59.552  8.54E+02  1.03E+03            1.82E-04 
      5736    59.559  1.29E+03  1.20E+03            1.69E-04 
      5737    59.567  1.37E+03  1.41E+03            1.67E-04 
      5738    59.575  1.58E+03  1.66E+03            1.61E-04 
      5739    59.583  1.87E+03  1.93E+03            1.54E-04 
      5740    59.590  2.19E+03  2.24E+03            1.47E-04 
      5741    59.598  2.55E+03  2.57E+03            1.39E-04 
      5742    59.606  3.00E+03  2.91E+03            1.31E-04 
      5743    59.614  3.30E+03  3.25E+03            1.26E-04 
      5744    59.621  3.36E+03  3.58E+03            1.25E-04 
      5745    59.629  3.62E+03  3.87E+03            1.21E-04 
      5746    59.637  4.01E+03  4.10E+03            1.16E-04 
      5747    59.645  3.84E+03  4.26E+03            1.18E-04 
      5748    59.652  3.80E+03  4.32E+03            1.19E-04 
      5749    59.660  3.97E+03  4.28E+03            1.16E-04 
      5750    59.668  3.90E+03  4.14E+03            1.17E-04 
      5751    59.676  3.68E+03  3.92E+03            1.20E-04 
      5752    59.684  3.30E+03  3.64E+03            1.26E-04 
      5753    59.691  3.10E+03  3.31E+03            1.29E-04 
      5754    59.699  2.67E+03  2.96E+03            1.37E-04 
      5755    59.707  2.29E+03  2.61E+03            1.45E-04 
      5756    59.715  2.13E+03  2.26E+03            1.48E-04 
      5757    59.722  1.83E+03  1.94E+03            1.55E-04 
      5758    59.730  1.61E+03  1.65E+03            1.61E-04 
      5759    59.738  1.45E+03  1.39E+03            1.65E-04 
      5760    59.746  1.12E+03  1.17E+03            1.74E-04 
      5761    59.753  1.09E+03       977            1.75E-04 
      5762    59.761  1.04E+03       820            1.77E-04 
      5763    59.769  9.15E+02       693            1.81E-04 
      5764    59.777  6.87E+02       591            1.88E-04 
      5765    59.785  6.43E+02       512            1.90E-04 
      5766    59.792  5.80E+02       449            1.92E-04 
      5767    59.800  5.58E+02       401            1.93E-04 
      5768    59.808  4.32E+02       364            1.98E-04 
      5769    59.816  5.61E+02       335            1.93E-04 
      5770    59.823  5.23E+02       313            1.95E-04 
      5771    59.831  4.88E+02       295            1.96E-04 
      5772    59.839  3.65E+02       280            2.01E-04 
      5773    59.847  3.76E+02       268            2.00E-04 
      5774    59.854  4.44E+02       257            1.98E-04 
      5775    59.862  3.88E+02       249            2.00E-04 
      5776    59.870  1.86E+02       241            2.08E-04 
      5777    59.878  2.82E+02       234            2.04E-04 
      5778    59.885  3.59E+02       228            2.01E-04 
      5779    59.893  3.72E+02       222            2.01E-04 
      5780    59.901  2.91E+02       217            2.04E-04 
      5781    59.909  2.42E+02       212            2.06E-04 
      5782    59.917  2.46E+02       207            2.06E-04 
      5783    59.924  4.06E+02       203            1.99E-04 
      5784    59.932  2.06E+02       200            2.07E-04 
      5785    59.940  2.50E+02       196            2.06E-04 
      5786    59.948  2.85E+02       193            2.04E-04 
      5787    59.955  2.75E+02       190            2.05E-04 
      5788    59.963  2.11E+02       188            2.07E-04 
      5789    59.971  3.12E+02       185            2.03E-04 
      5790    59.979  2.73E+02       183            2.05E-04 
      5791    59.986  2.84E+02       180            2.04E-04 
      5792    59.994  1.97E+02       178            2.08E-04 
      5793    60.002  3.19E+02       176            2.03E-04 
      5794    60.010  1.47E+02       174            2.10E-04 
      5795    60.018  3.28E+02       172            2.02E-04 
      5796    60.025  1.72E+02       170            2.09E-04 
      5797    60.033  1.89E+02       169            2.08E-04 
      5798    60.041  1.22E+02       167            2.11E-04 
      5799    60.049  2.47E+02       166            2.06E-04 
      5800    60.056  1.67E+02       164            2.09E-04 
      5801    60.064  1.49E+02       163            2.10E-04 
      5802    60.072  1.47E+02       162            2.10E-04 
      5803    60.080  1.12E+02       160            2.12E-04 
      5804    60.087  2.07E+02       159            2.08E-04 
      5805    60.095  2.28E+02       158            2.07E-04 
      5806    60.103  2.09E+02       157            2.08E-04 
      5807    60.111  1.78E+02       156            2.09E-04 
      5808    60.118  1.42E+02       155            2.11E-04 
      5809    60.126  1.21E+02       154            2.12E-04 
      5810    60.134  4.90E+01       153            2.15E-04 
      5811    60.142  1.33E+02       152            2.11E-04 
      5812    60.150  2.04E+02       152            2.08E-04 
      5813    60.157  1.22E+02       151            2.12E-04 
      5814    60.165  9.00E+01       150            2.13E-04 
      5815    60.173  2.21E+02       149            2.07E-04 
      5816    60.181  2.85E+02       149            2.05E-04 
      5817    60.188  2.27E+02       148            2.07E-04 
      5818    60.196  1.63E+02       147            2.10E-04 
      5819    60.204  6.30E+01       147            2.14E-04 
      5820    60.212  1.68E+02       146            2.10E-04 
      5821    60.219  6.60E+01       146            2.14E-04 
      5822    60.227  3.40E+01       145            2.16E-04 
      5823    60.235  1.34E+02       145            2.11E-04 
      5824    60.243  1.66E+02       144            2.10E-04 
      5825    60.251  1.46E+02       144            2.11E-04 
      5826    60.258  2.62E+02       143            2.06E-04 
      5827    60.266  2.23E+02       143            2.07E-04 
      5828    60.274  8.70E+01       142            2.13E-04 
      5829    60.282  1.39E+02       142            2.11E-04 
      5830    60.289  1.80E+02       132            2.09E-04 
      5831    60.297  4.60E+01       131            2.15E-04 
      5832    60.305  1.38E+02       131            2.11E-04 
      5833    60.313  1.37E+02       131            2.11E-04 
      5834    60.320  2.36E+02       131            2.07E-04 
      5835    60.328  1.83E+02       130            2.09E-04 
      5836    60.336  1.71E+02       130            2.10E-04 
      5837    60.344  6.90E+01       130            2.14E-04 
      5838    60.352  2.45E+02       130            2.06E-04 
      5839    60.359  1.98E+02       130            2.09E-04 
      5840    60.367  7.00E+01       129            2.14E-04 
      5841    60.375  7.90E+01       129            2.14E-04 
      5842    60.383  2.21E+02       129            2.08E-04 
      5843    60.390  1.33E+02       129            2.11E-04 
      5844    60.398  5.10E+01       129            2.15E-04 
      5845    60.406  2.29E+02       129            2.07E-04 
      5846    60.414  1.18E+02       129            2.12E-04 
      5847    60.421  1.75E+02       128            2.10E-04 
      5848    60.429  1.56E+02       128            2.10E-04 
      5849    60.437  2.12E+02       128            2.08E-04 
      5850    60.445  2.49E+02       128            2.06E-04 
      5851    60.452  2.35E+02       128            2.07E-04 
      5852    60.460  2.21E+02       128            2.08E-04 
      5853    60.468  9.30E+01       128            2.13E-04 
      5854    60.476  1.10E+02       128            2.13E-04 
      5855    60.484  1.09E+02       128            2.13E-04 
      5856    60.491  2.44E+02       128            2.07E-04 
      5857    60.499  1.42E+02       128            2.11E-04 
      5858    60.507  9.90E+01       128            2.13E-04 
      5859    60.515  1.04E+02       127            2.13E-04 
      5860    60.522  9.50E+01       127            2.13E-04 
      5861    60.530  1.62E+02       127            2.10E-04 
      5862    60.538  1.69E+02       127            2.10E-04 
      5863    60.546  2.04E+02       127            2.09E-04 
      5864    60.553  2.72E+02       127            2.06E-04 
      5865    60.561  1.82E+02       127            2.10E-04 
      5866    60.569  1.29E+02       127            2.12E-04 
      5867    60.577  1.70E+02       127            2.10E-04 
      5868    60.585  1.14E+02       128            2.13E-04 
      5869    60.592  2.42E+02       128            2.07E-04 
      5870    60.600  1.92E+02       128            2.09E-04 
      5871    60.608  1.58E+02       128            2.11E-04 
      5872    60.616  1.09E+02       128            2.13E-04 
      5873    60.623  6.30E+01       128            2.15E-04 
      5874    60.631  1.91E+02       128            2.09E-04 
      5875    60.639  8.60E+01       128            2.14E-04 
      5876    60.647  1.25E+02       128            2.12E-04 
      5877    60.654  1.76E+02       129            2.10E-04 
      5878    60.662  3.59E+02       129            2.02E-04 
      5879    60.670  6.20E+01       129            2.15E-04 
      5880    60.678 -3.50E+01       129            2.20E-04 
      5881    60.685  2.50E+01       129            2.17E-04 
      5882    60.693  1.92E+02       129            2.09E-04 
      5883    60.701  2.70E+01       130            2.17E-04 
      5884    60.709  7.60E+01       130            2.15E-04 
      5885    60.717  1.52E+02       130            2.11E-04 
      5886    60.724  1.09E+02       131            2.13E-04 
      5887    60.732  1.00E+00       131            2.18E-04 
      5888    60.740  7.60E+01       132            2.15E-04 
      5889    60.748  1.43E+02       132            2.12E-04 
      5890    60.755  1.16E+02       133            2.13E-04 
      5891    60.763  1.65E+02       134            2.11E-04 
      5892    60.771  4.00E+01       135            2.16E-04 
      5893    60.779  6.10E+01       136            2.15E-04 
      5894    60.786  2.07E+02       133            2.09E-04 
      5895    60.794  5.20E+01       134            2.16E-04 
      5896    60.802  1.81E+02       136            2.10E-04 
      5897    60.810  1.62E+02       138            2.11E-04 
      5898    60.818  2.30E+01       141            2.17E-04 
      5899    60.825  2.94E+02       144            2.05E-04 
      5900    60.833  2.46E+02       147            2.07E-04 
      5901    60.841  8.70E+01       151            2.14E-04 
      5902    60.849  2.17E+02       156            2.08E-04 
      5903    60.856  2.68E+02       161            2.06E-04 
      5904    60.864  1.89E+02       167            2.10E-04 
      5905    60.872  3.41E+02       173            2.03E-04 
      5906    60.880  3.40E+02       180            2.03E-04 
      5907    60.887  2.85E+02       188            2.06E-04 
      5908    60.895  1.58E+02       196            2.11E-04 
      5909    60.903  1.78E+02       204            2.10E-04 
      5910    60.911  2.04E+02       213            2.09E-04 
      5911    60.919  4.34E+02       222            1.99E-04 
      5912    60.926  2.63E+02       232            2.07E-04 
      5913    60.934  1.77E+02       243            2.10E-04 
      5914    60.942  2.38E+02       254            2.08E-04 
      5915    60.950  3.07E+02       266            2.05E-04 
      5916    60.957  2.49E+02       280            2.07E-04 
      5917    60.965  3.23E+02       296            2.04E-04 
      5918    60.973  2.69E+02       315            2.06E-04 
      5919    60.981  1.90E+02       337            2.10E-04 
      5920    60.988  3.39E+02       365            2.03E-04 
      5921    60.996  1.88E+02       399            2.10E-04 
      5922    61.004  4.04E+02       439            2.01E-04 
      5923    61.012  5.30E+02       486            1.96E-04 
      5924    61.019  5.73E+02       541            1.94E-04 
      5925    61.027  4.66E+02       603            1.98E-04 
      5926    61.035  6.29E+02       671            1.92E-04 
      5927    61.043  6.58E+02       743            1.91E-04 
      5928    61.051  6.78E+02       818            1.90E-04 
      5929    61.058  8.86E+02       892            1.83E-04 
      5930    61.066  8.09E+02       962            1.86E-04 
      5931    61.074  9.32E+02  1.02E+03            1.82E-04 
      5932    61.082  8.40E+02  1.07E+03            1.85E-04 
      5933    61.089  9.36E+02  1.10E+03            1.81E-04 
      5934    61.097  9.96E+02  1.11E+03            1.79E-04 
      5935    61.105  8.26E+02  1.10E+03            1.85E-04 
      5936    61.113  8.09E+02  1.07E+03            1.86E-04 
      5937    61.120  9.37E+02  1.02E+03            1.81E-04 
      5938    61.128  7.91E+02       955            1.86E-04 
      5939    61.136  8.79E+02       884            1.83E-04 
      5940    61.144  7.26E+02       808            1.89E-04 
      5941    61.152  6.88E+02       730            1.90E-04 
      5942    61.159  7.03E+02       654            1.89E-04 
      5943    61.167  8.43E+02       582            1.85E-04 
      5944    61.175  3.87E+02       514            2.02E-04 
      5945    61.183  5.83E+02       454            1.94E-04 
      5946    61.190  4.39E+02       400            1.99E-04 
      5947    61.198  5.32E+02       353            1.96E-04 
      5948    61.206  2.99E+02       313            2.05E-04 
      5949    61.214  3.79E+02       280            2.02E-04 
      5950    61.221  3.46E+02       252            2.03E-04 
      5951    61.229  3.33E+02       229            2.04E-04 
      5952    61.237  2.67E+02       211            2.07E-04 
      5953    61.245  2.63E+02       196            2.07E-04 
      5954    61.252  3.14E+02       184            2.05E-04 
      5955    61.260  3.07E+02       174            2.05E-04 
      5956    61.268  2.60E+02       166            2.07E-04 
      5957    61.276  1.67E+02       160            2.11E-04 
      5958    61.284  2.02E+02       155            2.09E-04 
      5959    61.291  4.00E+01       151            2.17E-04 
      5960    61.299  2.31E+02       148            2.08E-04 
      5961    61.307  1.83E+02       145            2.10E-04 
      5962    61.315  1.88E+02       142            2.10E-04 
      5963    61.322  2.05E+02       140            2.09E-04 
      5964    61.330  1.73E+02       139            2.11E-04 
      5965    61.338  2.29E+02       137            2.08E-04 
      5966    61.346  2.36E+02       136            2.08E-04 
      5967    61.353  2.38E+02       135            2.08E-04 
      5968    61.361  2.48E+02       134            2.07E-04 
      5969    61.369  2.51E+02       133            2.07E-04 
      5970    61.377  2.91E+02       132            2.06E-04 
      5971    61.385  1.87E+02       131            2.10E-04 
      5972    61.392  1.69E+02       131            2.11E-04 
      5973    61.400  2.00E+02       130            2.10E-04 
      5974    61.408  1.72E+02       130            2.11E-04 
      5975    61.416  2.45E+02       129            2.08E-04 
      5976    61.423  1.12E+02       129            2.13E-04 
      5977    61.431  7.10E+01       128            2.15E-04 
      5978    61.439  2.26E+02       128            2.08E-04 
      5979    61.447  1.40E+02       127            2.12E-04 
      5980    61.454  1.59E+02       127            2.11E-04 
      5981    61.462  2.91E+02       126            2.06E-04 
      5982    61.470  2.44E+02       126            2.08E-04 
      5983    61.478  2.07E+02       126            2.09E-04 
      5984    61.485  1.18E+02       125            2.13E-04 
      5985    61.493  1.19E+02       125            2.13E-04 
      5986    61.501  8.40E+01       124            2.15E-04 
      5987    61.509  9.20E+01       124            2.14E-04 
      5988    61.517  2.60E+02       124            2.07E-04 
      5989    61.524  1.35E+02       123            2.12E-04 
      5990    61.532  1.61E+02       123            2.11E-04 
      5991    61.540  1.15E+02       123            2.13E-04 
      5992    61.548  5.90E+01       123            2.16E-04 
      5993    61.555  1.78E+02       123            2.11E-04 
      5994    61.563  1.71E+02       123            2.11E-04 
      5995    61.571  1.82E+02       122            2.10E-04 
      5996    61.579  1.55E+02       122            2.12E-04 
      5997    61.586  8.50E+01       122            2.15E-04 
      5998    61.594 -7.80E+01       122            2.23E-04 
      5999    61.602  2.71E+02       122            2.07E-04 
      6000    61.610  2.39E+02       122            2.08E-04 
      6001    61.618  2.24E+02       122            2.09E-04 
      6002    61.625  8.20E+01       122            2.15E-04 
      6003    61.633  2.70E+01       121            2.18E-04 
      6004    61.641  4.80E+01       121            2.17E-04 
      6005    61.649  1.45E+02       121            2.12E-04 
      6006    61.656  2.42E+02       121            2.08E-04 
      6007    61.664  2.73E+02       121            2.07E-04 
      6008    61.672  3.10E+01       121            2.17E-04 
      6009    61.680  7.40E+01       121            2.15E-04 
      6010    61.687  2.34E+02       121            2.08E-04 
      6011    61.695  1.02E+02       121            2.14E-04 
      6012    61.703  1.34E+02       121            2.13E-04 
      6013    61.711  2.36E+02       121            2.08E-04 
      6014    61.719  2.03E+02       121            2.10E-04 
      6015    61.726  1.58E+02       121            2.12E-04 
      6016    61.734  9.50E+01       120            2.14E-04 
      6017    61.742  5.90E+01       120            2.16E-04 
      6018    61.750  1.44E+02       120            2.12E-04 
      6019    61.757  1.56E+02       120            2.12E-04 
      6020    61.765  7.80E+01       120            2.15E-04 
      6021    61.773  2.49E+02       124            2.08E-04 
      6022    61.781  1.00E+02       124            2.14E-04 
      6023    61.788  1.10E+02       124            2.14E-04 
      6024    61.796  1.86E+02       124            2.10E-04 
      6025    61.804  8.90E+01       124            2.15E-04 
      6026    61.812  1.53E+02       124            2.12E-04 
      6027    61.819  8.40E+01       124            2.15E-04 
      6028    61.827  8.20E+01       124            2.15E-04 
      6029    61.835  1.09E+02       124            2.14E-04 
      6030    61.843  1.40E+02       124            2.12E-04 
      6031    61.851  1.23E+02       124            2.13E-04 
      6032    61.858 -6.00E+00       124            2.19E-04 
      6033    61.866  1.91E+02       124            2.10E-04 
      6034    61.874  2.00E+02       124            2.10E-04 
      6035    61.882  1.45E+02       124            2.12E-04 
      6036    61.889  1.14E+02       124            2.14E-04 
      6037    61.897 -5.30E+01       124            2.22E-04 
      6038    61.905  1.22E+02       124            2.13E-04 
      6039    61.913  1.08E+02       124            2.14E-04 
      6040    61.920  9.10E+01       124            2.15E-04 
      6041    61.928  7.80E+01       124            2.15E-04 
      6042    61.936  1.01E+02       124            2.14E-04 
      6043    61.944  1.30E+02       124            2.13E-04 
      6044    61.952  4.80E+01       124            2.17E-04 
      6045    61.959  2.11E+02       124            2.09E-04 
      6046    61.967  1.80E+02       124            2.11E-04 
      6047    61.975  2.00E+01       124            2.18E-04 
      6048    61.983  1.69E+02       124            2.11E-04 
      6049    61.990  2.41E+02       124            2.08E-04 
      6050    61.998  8.80E+01       124            2.15E-04 
      6051    62.006  1.58E+02       125            2.12E-04 
      6052    62.014  1.99E+02       125            2.10E-04 
      6053    62.021  2.23E+02       125            2.09E-04 
      6054    62.029  1.42E+02       125            2.12E-04 
      6055    62.037  1.33E+02       125            2.13E-04 
      6056    62.045  1.65E+02       125            2.11E-04 
      6057    62.052  8.90E+01       125            2.15E-04 
      6058    62.060  1.80E+02       125            2.11E-04 
      6059    62.068  1.41E+02       125            2.13E-04 
      6060    62.076  7.00E+01       125            2.16E-04 
      6061    62.084  8.40E+01       125            2.15E-04 
      6062    62.091  1.61E+02       125            2.12E-04 
      6063    62.099  2.79E+02       125            2.06E-04 
      6064    62.107  8.70E+01       125            2.15E-04 
      6065    62.115  1.00E+02       125            2.14E-04 
      6066    62.122 -1.00E+01       125            2.20E-04 
      6067    62.130  1.54E+02       126            2.12E-04 
      6068    62.138 -2.20E+01       126            2.20E-04 
      6069    62.146  1.92E+02       126            2.10E-04 
      6070    62.153  1.57E+02       126            2.12E-04 
      6071    62.161  1.49E+02       126            2.12E-04 
      6072    62.169  8.80E+01       126            2.15E-04 
      6073    62.177  4.10E+01       126            2.17E-04 
      6074    62.185  1.45E+02       126            2.12E-04 
      6075    62.192  1.53E+02       126            2.12E-04 
      6076    62.200  1.06E+02       126            2.14E-04 
      6077    62.208  5.10E+01       126            2.17E-04 
      6078    62.216  6.00E+01       127            2.16E-04 
      6079    62.223  1.24E+02       126            2.13E-04 
      6080    62.231  1.47E+02       126            2.12E-04 
      6081    62.239  2.90E+01       126            2.18E-04 
      6082    62.247  2.72E+02       126            2.07E-04 
      6083    62.254  2.20E+02       126            2.09E-04 
      6084    62.262  1.08E+02       126            2.14E-04 
      6085    62.270  1.14E+02       127            2.14E-04 
      6086    62.278  1.21E+02       127            2.14E-04 
      6087    62.285  2.08E+02       127            2.10E-04 
      6088    62.293  1.10E+02       127            2.14E-04 
      6089    62.301  1.46E+02       127            2.12E-04 
      6090    62.309  1.08E+02       127            2.14E-04 
      6091    62.317  2.20E+02       128            2.09E-04 
      6092    62.324  1.91E+02       128            2.10E-04 
      6093    62.332  9.20E+01       128            2.15E-04 
      6094    62.340  2.18E+02       128            2.09E-04 
      6095    62.348  1.36E+02       128            2.13E-04 
      6096    62.355  4.00E+00       129            2.19E-04 
      6097    62.363  1.49E+02       129            2.12E-04 
      6098    62.371  2.08E+02       129            2.10E-04 
      6099    62.379  1.15E+02       129            2.14E-04 
      6100    62.386  6.10E+01       129            2.16E-04 
      6101    62.394  1.05E+02       130            2.14E-04 
      6102    62.402  1.00E+02       130            2.15E-04 
      6103    62.410  1.27E+02       130            2.13E-04 
      6104    62.418  1.70E+02       130            2.11E-04 
      6105    62.425  1.78E+02       131            2.11E-04 
      6106    62.433  1.56E+02       131            2.12E-04 
      6107    62.441  1.04E+02       131            2.14E-04 
      6108    62.449  1.20E+02       131            2.14E-04 
      6109    62.456  1.16E+02       132            2.14E-04 
      6110    62.464  1.16E+02       132            2.14E-04 
      6111    62.472  2.01E+02       132            2.10E-04 
      6112    62.480  1.06E+02       133            2.14E-04 
      6113    62.487  2.14E+02       133            2.10E-04 
      6114    62.495  1.61E+02       133            2.12E-04 
      6115    62.503  2.18E+02       134            2.09E-04 
      6116    62.511  1.79E+02       134            2.11E-04 
      6117    62.519  2.07E+02       135            2.10E-04 
      6118    62.526  1.82E+02       135            2.11E-04 
      6119    62.534  7.40E+01       135            2.16E-04 
      6120    62.542  1.73E+02       136            2.11E-04 
      6121    62.550  3.00E+01       136            2.18E-04 
      6122    62.557  8.60E+01       137            2.15E-04 
      6123    62.565  7.00E+00       137            2.19E-04 
      6124    62.573  7.70E+01       138            2.16E-04 
      6125    62.581  1.15E+02       138            2.14E-04 
      6126    62.588  1.86E+02       139            2.11E-04 
      6127    62.596  1.04E+02       139            2.15E-04 
      6128    62.604  1.54E+02       140            2.12E-04 
      6129    62.612  1.11E+02       141            2.14E-04 
      6130    62.619  3.50E+01       141            2.18E-04 
      6131    62.627  5.50E+01       142            2.17E-04 
      6132    62.635  9.20E+01       143            2.15E-04 
      6133    62.643  4.30E+01       143            2.17E-04 
      6134    62.651  1.09E+02       144            2.14E-04 
      6135    62.658  1.15E+02       145            2.14E-04 
      6136    62.666  1.39E+02       146            2.13E-04 
      6137    62.674  7.70E+01       147            2.16E-04 
      6138    62.682  1.77E+02       148            2.11E-04 
      6139    62.689  1.68E+02       149            2.12E-04 
      6140    62.697  1.39E+02       150            2.13E-04 
      6141    62.705  2.87E+02       151            2.06E-04 
      6142    62.713  1.84E+02       152            2.11E-04 
      6143    62.720  1.93E+02       153            2.11E-04 
      6144    62.728  1.70E+02       154            2.12E-04 
      6145    62.736  1.03E+02       155            2.15E-04 
      6146    62.744  1.88E+02       157            2.11E-04 
      6147    62.752  9.70E+01       158            2.15E-04 
      6148    62.759  2.89E+02       160            2.06E-04 
      6149    62.767  2.23E+02       162            2.09E-04 
      6150    62.775  1.29E+02       163            2.13E-04 
      6151    62.783  1.37E+02       165            2.13E-04 
      6152    62.790  8.40E+01       167            2.16E-04 
      6153    62.798  1.99E+02       169            2.10E-04 
      6154    62.806  1.07E+02       171            2.15E-04 
      6155    62.814  1.52E+02       174            2.12E-04 
      6156    62.821  1.34E+02       176            2.13E-04 
      6157    62.829  1.56E+02       179            2.12E-04 
      6158    62.837  1.99E+02       182            2.10E-04 
      6159    62.845  1.26E+02       185            2.14E-04 
      6160    62.852  2.15E+02       188            2.10E-04 
      6161    62.860  2.91E+02       192            2.06E-04 
      6162    62.868  1.15E+02       196            2.14E-04 
      6163    62.876  2.37E+02       200            2.09E-04 
      6164    62.884  1.86E+02       204            2.11E-04 
      6165    62.891  4.80E+01       209            2.17E-04 
      6166    62.899  2.64E+02       214            2.08E-04 
      6167    62.907  1.31E+02       220            2.13E-04 
      6168    62.915  1.07E+02       227            2.15E-04 
      6169    62.922  1.79E+02       234            2.11E-04 
      6170    62.930  3.52E+02       241            2.04E-04 
      6171    62.938  2.15E+02       250            2.10E-04 
      6172    62.946  7.80E+01       260            2.16E-04 
      6173    62.953  2.09E+02       272            2.10E-04 
      6174    62.961  1.32E+02       286            2.13E-04 
      6175    62.969  2.78E+02       303            2.07E-04 
      6176    62.977  1.93E+02       323            2.11E-04 
      6177    62.985  3.17E+02       349            2.05E-04 
      6178    62.992  2.34E+02       382            2.09E-04 
      6179    63.000  4.81E+02       424            1.99E-04 
      6180    63.008  4.82E+02       478            1.99E-04 
      6181    63.016  3.27E+02       547            2.05E-04 
      6182    63.023  5.92E+02       636            1.94E-04 
      6183    63.031  7.11E+02       748            1.90E-04 
      6184    63.039  7.43E+02       888            1.89E-04 
      6185    63.047  9.46E+02  1.06E+03            1.82E-04 
      6186    63.054  1.18E+03  1.27E+03            1.75E-04 
      6187    63.062  1.55E+03  1.52E+03            1.64E-04 
      6188    63.070  1.76E+03  1.81E+03            1.59E-04 
      6189    63.078  2.25E+03  2.14E+03            1.47E-04 
      6190    63.085  2.42E+03  2.50E+03            1.43E-04 
      6191    63.093  3.03E+03  2.90E+03            1.32E-04 
      6192    63.101  3.66E+03  3.32E+03            1.22E-04 
      6193    63.109  4.00E+03  3.74E+03            1.17E-04 
      6194    63.117  4.41E+03  4.16E+03            1.12E-04 
      6195    63.124  4.75E+03  4.55E+03            1.08E-04 
      6196    63.132  4.93E+03  4.89E+03            1.06E-04 
      6197    63.140  5.30E+03  5.15E+03            1.02E-04 
      6198    63.148  5.38E+03  5.31E+03            1.01E-04 
      6199    63.155  5.20E+03  5.36E+03            1.03E-04 
      6200    63.163  5.19E+03  5.28E+03            1.03E-04 
      6201    63.171  5.26E+03  5.10E+03            1.02E-04 
      6202    63.179  4.79E+03  4.83E+03            1.07E-04 
      6203    63.186  4.69E+03  4.48E+03            1.08E-04 
      6204    63.194  4.05E+03  4.08E+03            1.16E-04 
      6205    63.202  3.67E+03  3.66E+03            1.22E-04 
      6206    63.210  3.11E+03  3.24E+03            1.31E-04 
      6207    63.218  2.69E+03  2.82E+03            1.38E-04 
      6208    63.225  2.38E+03  2.43E+03            1.44E-04 
      6209    63.233  1.98E+03  2.07E+03            1.53E-04 
      6210    63.241  1.65E+03  1.75E+03            1.61E-04 
      6211    63.249  1.47E+03  1.47E+03            1.66E-04 
      6212    63.256  1.28E+03  1.23E+03            1.71E-04 
      6213    63.264  1.06E+03  1.03E+03            1.78E-04 
      6214    63.272  9.26E+02       860            1.83E-04 
      6215    63.280  6.26E+02       725            1.93E-04 
      6216    63.287  7.23E+02       618            1.90E-04 
      6217    63.295  5.69E+02       533            1.95E-04 
      6218    63.303  5.06E+02       467            1.98E-04 
      6219    63.311  5.44E+02       415            1.96E-04 
      6220    63.319  5.03E+02       375            1.98E-04 
      6221    63.326  4.26E+02       344            2.01E-04 
      6222    63.334  3.74E+02       319            2.03E-04 
      6223    63.342  2.31E+02       300            2.09E-04 
      6224    63.350  1.84E+02       283            2.11E-04 
      6225    63.357  1.99E+02       270            2.11E-04 
      6226    63.365  2.87E+02       259            2.07E-04 
      6227    63.373  2.47E+02       249            2.09E-04 
      6228    63.381  2.66E+02       240            2.08E-04 
      6229    63.388  4.50E+01       233            2.18E-04 
      6230    63.396  1.94E+02       226            2.11E-04 
      6231    63.404  1.66E+02       220            2.12E-04 
      6232    63.412  2.41E+02       214            2.09E-04 
      6233    63.419  2.95E+02       209            2.06E-04 
      6234    63.427  2.65E+02       204            2.08E-04 
      6235    63.435  1.92E+02       199            2.11E-04 
      6236    63.443  1.53E+02       195            2.13E-04 
      6237    63.451  2.23E+02       192            2.10E-04 
      6238    63.458  1.94E+02       188            2.11E-04 
      6239    63.466  2.47E+02       185            2.09E-04 
      6240    63.474  2.57E+02       182            2.08E-04 
      6241    63.482  8.70E+01       179            2.16E-04 
      6242    63.489  1.92E+02       176            2.11E-04 
      6243    63.497  1.41E+02       174            2.13E-04 
      6244    63.505  8.60E+01       172            2.16E-04 
      6245    63.513  2.57E+02       169            2.08E-04 
      6246    63.520  1.33E+02       167            2.14E-04 
      6247    63.528  1.38E+02       165            2.13E-04 
      6248    63.536  1.96E+02       164            2.11E-04 
      6249    63.544  7.30E+01       162            2.17E-04 
      6250    63.552  2.70E+02       160            2.08E-04 
      6251    63.559  9.00E+01       159            2.16E-04 
      6252    63.567  2.40E+02       157            2.09E-04 
      6253    63.575  2.16E+02       156            2.10E-04 
      6254    63.583  1.20E+02       155            2.14E-04 
      6255    63.590  2.46E+02       154            2.09E-04 
      6256    63.598  1.59E+02       152            2.13E-04 
      6257    63.606  2.12E+02       151            2.10E-04 
      6258    63.614  2.18E+02       150            2.10E-04 
      6259    63.621  1.13E+02       149            2.15E-04 
      6260    63.629  2.62E+02       148            2.08E-04 
      6261    63.637  2.00E+01       147            2.19E-04 
      6262    63.645  1.94E+02       147            2.11E-04 
      6263    63.652  1.50E+02       146            2.13E-04 
      6264    63.660  1.67E+02       145            2.12E-04 
      6265    63.668  1.55E+02       144            2.13E-04 
      6266    63.676  6.30E+01       143            2.17E-04 
      6267    63.684  1.63E+02       143            2.12E-04 
      6268    63.691  2.38E+02       142            2.09E-04 
      6269    63.699  1.39E+02       142            2.14E-04 
      6270    63.707  1.54E+02       141            2.13E-04 
      6271    63.715  1.25E+02       140            2.14E-04 
      6272    63.722  9.20E+01       140            2.16E-04 
      6273    63.730  2.07E+02       139            2.10E-04 
      6274    63.738  1.52E+02       139            2.13E-04 
      6275    63.746  2.02E+02       138            2.11E-04 
      6276    63.753  1.05E+02       138            2.15E-04 
      6277    63.761  8.80E+01       137            2.16E-04 
      6278    63.769  1.18E+02       137            2.15E-04 
      6279    63.777  2.64E+02       137            2.08E-04 
      6280    63.785  2.75E+02       142            2.08E-04 
      6281    63.792  1.60E+02       142            2.13E-04 
      6282    63.800  4.30E+01       142            2.18E-04 
      6283    63.808  2.00E+02       142            2.11E-04 
      6284    63.816  1.87E+02       141            2.11E-04 
      6285    63.823  6.40E+01       141            2.17E-04 
      6286    63.831  1.19E+02       141            2.15E-04 
      6287    63.839  8.40E+01       141            2.16E-04 
      6288    63.847  1.81E+02       140            2.12E-04 
      6289    63.854  2.66E+02       140            2.08E-04 
      6290    63.862  2.05E+02       140            2.11E-04 
      6291    63.870  2.05E+02       140            2.11E-04 
      6292    63.878  6.50E+01       140            2.17E-04 
      6293    63.885  1.25E+02       140            2.14E-04 
      6294    63.893  7.00E+01       139            2.17E-04 
      6295    63.901  1.09E+02       139            2.15E-04 
      6296    63.909  1.00E+00       139            2.20E-04 
      6297    63.917  1.34E+02       139            2.14E-04 
      6298    63.924  2.33E+02       139            2.10E-04 
      6299    63.932  1.20E+01       139            2.20E-04 
      6300    63.940  1.80E+01       139            2.19E-04 
      6301    63.948  1.56E+02       139            2.13E-04 
      6302    63.955  1.56E+02       139            2.13E-04 
      6303    63.963  1.48E+02       139            2.13E-04 
      6304    63.971  1.62E+02       139            2.13E-04 
      6305    63.979  1.95E+02       139            2.11E-04 
      6306    63.986  1.95E+02       139            2.11E-04 
      6307    63.994  3.14E+02       139            2.06E-04 
      6308    64.002  9.10E+01       139            2.16E-04 
      6309    64.010  2.28E+02       139            2.10E-04 
      6310    64.018  2.55E+02       139            2.09E-04 
      6311    64.025  1.20E+02       140            2.15E-04 
      6312    64.033  1.52E+02       140            2.13E-04 
      6313    64.041  1.60E+02       140            2.13E-04 
      6314    64.049  4.50E+01       140            2.18E-04 
      6315    64.056 -1.10E+01       141            2.21E-04 
      6316    64.064  1.96E+02       141            2.11E-04 
      6317    64.072  5.20E+01       141            2.18E-04 
      6318    64.080  2.67E+02       142            2.08E-04 
      6319    64.087  2.18E+02       143            2.10E-04 
      6320    64.095  1.13E+02       144            2.15E-04 
      6321    64.103  1.71E+02       145            2.13E-04 
      6322    64.111  1.57E+02       147            2.13E-04 
      6323    64.119  7.10E+01       149            2.17E-04 
      6324    64.126  1.85E+02       152            2.12E-04 
      6325    64.134  1.71E+02       156            2.13E-04 
      6326    64.142  1.67E+02       160            2.13E-04 
      6327    64.150  8.90E+01       165            2.16E-04 
      6328    64.157  2.01E+02       170            2.11E-04 
      6329    64.165  1.95E+02       177            2.12E-04 
      6330    64.173  3.00E+02       184            2.07E-04 
      6331    64.181  9.30E+01       192            2.16E-04 
      6332    64.188  2.02E+02       201            2.11E-04 
      6333    64.196  1.78E+02       209            2.12E-04 
      6334    64.204  2.26E+02       218            2.10E-04 
      6335    64.212  2.61E+02       226            2.09E-04 
      6336    64.219  1.93E+02       233            2.12E-04 
      6337    64.227  1.95E+02       239            2.12E-04 
      6338    64.235  3.33E+02       243            2.06E-04 
      6339    64.243  4.06E+02       245            2.03E-04 
      6340    64.251  2.64E+02       244            2.09E-04 
      6341    64.258  2.61E+02       242            2.09E-04 
      6342    64.266  3.39E+02       237            2.06E-04 
      6343    64.274  3.01E+02       231            2.07E-04 
      6344    64.282  2.83E+02       223            2.08E-04 
      6345    64.289  3.04E+02       215            2.07E-04 
      6346    64.297  2.45E+02       207            2.10E-04 
      6347    64.305  2.37E+02       199            2.10E-04 
      6348    64.313  2.75E+02       191            2.08E-04 
      6349    64.320  2.55E+02       184            2.09E-04 
      6350    64.328  4.46E+02       177            2.01E-04 
      6351    64.336  2.27E+02       171            2.10E-04 
      6352    64.344  2.83E+02       166            2.08E-04 
      6353    64.352  2.28E+02       162            2.10E-04 
      6354    64.359  2.58E+02       159            2.09E-04 
      6355    64.367  2.16E+02       156            2.11E-04 
      6356    64.375  1.38E+02       154            2.15E-04 
      6357    64.383  8.30E+01       152            2.17E-04 
      6358    64.390  1.45E+02       151            2.14E-04 
      6359    64.398  1.78E+02       150            2.13E-04 
      6360    64.406  2.17E+02       149            2.11E-04 
      6361    64.414  2.58E+02       149            2.09E-04 
      6362    64.421  2.28E+02       149            2.11E-04 
      6363    64.429  2.47E+02       149            2.10E-04 
      6364    64.437  2.25E+02       149            2.11E-04 
      6365    64.445  2.52E+02       149            2.10E-04 
      6366    64.452  3.09E+02       149            2.07E-04 
      6367    64.460  1.41E+02       149            2.15E-04 
      6368    64.468  1.17E+02       150            2.16E-04 
      6369    64.476  1.82E+02       150            2.13E-04 
      6370    64.484  2.34E+02       150            2.10E-04 
      6371    64.491  1.84E+02       151            2.13E-04 
      6372    64.499  1.73E+02       151            2.13E-04 
      6373    64.507  1.43E+02       152            2.15E-04 
      6374    64.515  1.71E+02       152            2.13E-04 
      6375    64.522  1.99E+02       153            2.12E-04 
      6376    64.530  1.93E+02       153            2.12E-04 
      6377    64.538  1.16E+02       150            2.16E-04 
      6378    64.546  2.05E+02       151            2.12E-04 
      6379    64.553  2.09E+02       152            2.12E-04 
      6380    64.561  1.65E+02       152            2.14E-04 
      6381    64.569  2.33E+02       153            2.11E-04 
      6382    64.577  1.34E+02       154            2.15E-04 
      6383    64.585  1.15E+02       155            2.16E-04 
      6384    64.592  1.73E+02       156            2.13E-04 
      6385    64.600  2.64E+02       157            2.09E-04 
      6386    64.608  5.50E+01       158            2.19E-04 
      6387    64.616  2.63E+02       159            2.09E-04 
      6388    64.623  2.01E+02       160            2.12E-04 
      6389    64.631  2.26E+02       161            2.11E-04 
      6390    64.639  1.99E+02       162            2.12E-04 
      6391    64.647  1.65E+02       163            2.14E-04 
      6392    64.654  1.02E+02       164            2.17E-04 
      6393    64.662  2.80E+02       166            2.09E-04 
      6394    64.670  1.50E+02       167            2.15E-04 
      6395    64.678  1.59E+02       168            2.14E-04 
      6396    64.686  3.80E+01       170            2.20E-04 
      6397    64.693  2.72E+02       172            2.09E-04 
      6398    64.701  2.55E+02       173            2.10E-04 
      6399    64.709  1.37E+02       175            2.15E-04 
      6400    64.717  1.10E+01       177            2.21E-04 
      6401    64.724  2.66E+02       179            2.09E-04 
      6402    64.732  1.37E+02       181            2.15E-04 
      6403    64.740  2.80E+02       183            2.09E-04 
      6404    64.748  2.28E+02       185            2.11E-04 
      6405    64.755  1.60E+02       188            2.14E-04 
      6406    64.763  1.71E+02       190            2.14E-04 
      6407    64.771  8.60E+01       193            2.18E-04 
      6408    64.779  1.54E+02       196            2.15E-04 
      6409    64.786  1.07E+02       199            2.17E-04 
      6410    64.794  2.30E+02       202            2.11E-04 
      6411    64.802  3.17E+02       205            2.07E-04 
      6412    64.810  1.65E+02       209            2.14E-04 
      6413    64.818  1.76E+02       213            2.14E-04 
      6414    64.825  1.39E+02       217            2.15E-04 
      6415    64.833  1.78E+02       221            2.14E-04 
      6416    64.841  8.90E+01       226            2.18E-04 
      6417    64.849  1.55E+02       231            2.15E-04 
      6418    64.856  1.36E+02       236            2.16E-04 
      6419    64.864  3.26E+02       242            2.07E-04 
      6420    64.872  1.55E+02       248            2.15E-04 
      6421    64.880  9.50E+01       254            2.17E-04 
      6422    64.887  1.35E+02       261            2.16E-04 
      6423    64.895  2.64E+02       269            2.10E-04 
      6424    64.903  1.87E+02       278            2.13E-04 
      6425    64.911  1.18E+02       287            2.16E-04 
      6426    64.919  1.38E+02       297            2.16E-04 
      6427    64.926  2.85E+02       308            2.09E-04 
      6428    64.934  3.08E+02       320            2.08E-04 
      6429    64.942  2.56E+02       333            2.10E-04 
      6430    64.950  2.71E+02       348            2.10E-04 
      6431    64.957  3.02E+02       366            2.08E-04 
      6432    64.965  3.29E+02       387            2.07E-04 
      6433    64.973  3.91E+02       411            2.04E-04 
      6434    64.981  3.94E+02       440            2.04E-04 
      6435    64.988  3.98E+02       477            2.04E-04 
      6436    64.996  4.20E+02       522            2.03E-04 
      6437    65.004  4.83E+02       580            2.01E-04 
      6438    65.012  5.71E+02       654            1.97E-04 
      6439    65.019  5.34E+02       748            1.99E-04 
      6440    65.027  7.43E+02       868            1.91E-04 
      6441    65.035  7.60E+02  1.02E+03            1.90E-04 
      6442    65.043  8.80E+02  1.21E+03            1.86E-04 
      6443    65.051  1.26E+03  1.45E+03            1.74E-04 
      6444    65.058  1.70E+03  1.74E+03            1.62E-04 
      6445    65.066  1.85E+03  2.09E+03            1.58E-04 
      6446    65.074  2.41E+03  2.51E+03            1.45E-04 
      6447    65.082  2.95E+03  2.99E+03            1.34E-04 
      6448    65.089  3.76E+03  3.53E+03            1.21E-04 
      6449    65.097  4.39E+03  4.13E+03            1.13E-04 
      6450    65.105  5.19E+03  4.79E+03            1.03E-04 
      6451    65.113  6.00E+03  5.48E+03            9.54E-05 
      6452    65.120  6.52E+03  6.18E+03            9.08E-05 
      6453    65.128  7.33E+03  6.88E+03            8.46E-05 
      6454    65.136  7.87E+03  7.53E+03            8.09E-05 
      6455    65.144  8.79E+03  8.11E+03            7.53E-05 
      6456    65.152  8.91E+03  8.57E+03            7.46E-05 
      6457    65.159  9.17E+03  8.88E+03            7.32E-05 
      6458    65.167  9.24E+03  9.01E+03            7.28E-05 
      6459    65.175  9.25E+03  8.96E+03            7.28E-05 
      6460    65.183  8.90E+03  8.71E+03            7.47E-05 
      6461    65.190  8.37E+03  8.31E+03            7.77E-05 
      6462    65.198  7.94E+03  7.78E+03            8.04E-05 
      6463    65.206  7.13E+03  7.15E+03            8.61E-05 
      6464    65.214  6.76E+03  6.47E+03            8.89E-05 
      6465    65.221  5.73E+03  5.77E+03            9.79E-05 
      6466    65.229  5.25E+03  5.07E+03            1.03E-04 
      6467    65.237  4.54E+03  4.40E+03            1.11E-04 
      6468    65.245  3.79E+03  3.77E+03            1.21E-04 
      6469    65.252  3.28E+03  3.20E+03            1.29E-04 
      6470    65.260  2.77E+03  2.69E+03            1.38E-04 
      6471    65.268  2.49E+03  2.25E+03            1.43E-04 
      6472    65.276  2.07E+03  1.88E+03            1.53E-04 
      6473    65.284  1.81E+03  1.56E+03            1.59E-04 
      6474    65.291  1.34E+03  1.31E+03            1.72E-04 
      6475    65.299  1.28E+03  1.10E+03            1.73E-04 
      6476    65.307  1.25E+03       927            1.74E-04 
      6477    65.315  9.36E+02       794            1.84E-04 
      6478    65.322  7.29E+02       690            1.92E-04 
      6479    65.330  7.76E+02       608            1.90E-04 
      6480    65.338  7.73E+02       545            1.90E-04 
      6481    65.346  5.68E+02       494            1.98E-04 
      6482    65.353  6.85E+02       455            1.93E-04 
      6483    65.361  5.10E+02       423            2.00E-04 
      6484    65.369  5.56E+02       396            1.98E-04 
      6485    65.377  4.02E+02       374            2.05E-04 
      6486    65.385  4.26E+02       356            2.04E-04 
      6487    65.392  4.50E+02       339            2.03E-04 
      6488    65.400  2.42E+02       325            2.12E-04 
      6489    65.408  4.02E+02       313            2.05E-04 
      6490    65.416  3.51E+02       301            2.07E-04 
      6491    65.423  3.03E+02       291            2.09E-04 
      6492    65.431  3.97E+02       281            2.05E-04 
      6493    65.439  2.44E+02       273            2.12E-04 
      6494    65.447  3.61E+02       265            2.07E-04 
      6495    65.454  8.70E+01       258            2.19E-04 
      6496    65.462  3.28E+02       251            2.08E-04 
      6497    65.470  4.24E+02       244            2.04E-04 
      6498    65.478  3.16E+02       239            2.09E-04 
      6499    65.485  1.45E+02       233            2.16E-04 
      6500    65.493  2.85E+02       228            2.10E-04 
      6501    65.501  2.01E+02       223            2.14E-04 
      6502    65.509  1.81E+02       219            2.15E-04 
      6503    65.517  2.67E+02       215            2.11E-04 
      6504    65.524  1.08E+02       211            2.18E-04 
      6505    65.532  2.80E+02       207            2.10E-04 
      6506    65.540  1.81E+02       203            2.15E-04 
      6507    65.548  2.09E+02       200            2.13E-04 
      6508    65.555  1.74E+02       197            2.15E-04 
      6509    65.563  2.58E+02       194            2.11E-04 
      6510    65.571  9.70E+01       192            2.19E-04 
      6511    65.579  2.38E+02       189            2.12E-04 
      6512    65.586  1.29E+02       186            2.17E-04 
      6513    65.594  9.20E+01       184            2.19E-04 
      6514    65.602  3.90E+01       182            2.21E-04 
      6515    65.610  2.09E+02       180            2.13E-04 
      6516    65.618  1.46E+02       178            2.16E-04 
      6517    65.625  1.69E+02       176            2.15E-04 
      6518    65.633  1.40E+02       174            2.17E-04 
      6519    65.641  1.09E+02       172            2.18E-04 
      6520    65.649  1.44E+02       171            2.17E-04 
      6521    65.656  2.90E+01       169            2.22E-04 
      6522    65.664  1.18E+02       168            2.18E-04 
      6523    65.672  1.96E+02       166            2.14E-04 
      6524    65.680  9.90E+01       165            2.19E-04 
      6525    65.687  5.90E+01       164            2.21E-04 
      6526    65.695  9.40E+01       162            2.19E-04 
      6527    65.703 -7.20E+01       161            2.27E-04 
      6528    65.711  1.64E+02       160            2.16E-04 
      6529    65.719  9.80E+01       159            2.19E-04 
      6530    65.726  1.02E+02       158            2.19E-04 
      6531    65.734  1.03E+02       157            2.19E-04 
      6532    65.742  1.49E+02       156            2.17E-04 
      6533    65.750  1.53E+02       155            2.16E-04 
      6534    65.757  8.20E+01       154            2.20E-04 
      6535    65.765  2.01E+02       153            2.14E-04 
      6536    65.773  1.26E+02       153            2.18E-04 
      6537    65.781  7.40E+01       152            2.20E-04 
      6538    65.788  1.12E+02       151            2.18E-04 
      6539    65.796  1.05E+02       150            2.19E-04 
      6540    65.804  5.30E+01       150            2.21E-04 
      6541    65.812  1.37E+02       149            2.17E-04 
      6542    65.819  8.20E+01       148            2.20E-04 
      6543    65.827  1.01E+02       148            2.19E-04 
      6544    65.835  1.08E+02       147            2.19E-04 
      6545    65.843  1.54E+02       146            2.16E-04 
      6546    65.851  1.85E+02       146            2.15E-04 
      6547    65.858  1.76E+02       145            2.15E-04 
      6548    65.866  1.37E+02       145            2.17E-04 
      6549    65.874  1.56E+02       144            2.16E-04 
      6550    65.882  6.60E+01       144            2.21E-04 
      6551    65.889  2.04E+02       143            2.14E-04 
      6552    65.897  9.10E+01       143            2.20E-04 
      6553    65.905  1.43E+02       142            2.17E-04 
      6554    65.913  1.49E+02       142            2.17E-04 
      6555    65.920  9.10E+01       142            2.20E-04 
      6556    65.928  1.46E+02       142            2.17E-04 
      6557    65.936  7.80E+01       141            2.20E-04 
      6558    65.944  1.12E+02       141            2.19E-04 
      6559    65.952  1.39E+02       145            2.17E-04 
      6560    65.959  1.10E+01       145            2.24E-04 
      6561    65.967  8.60E+01       145            2.20E-04 
      6562    65.975  1.75E+02       144            2.16E-04 
      6563    65.983  9.00E+00       144            2.24E-04 
      6564    65.990  4.60E+01       144            2.22E-04 
      6565    65.998  8.40E+01       144            2.20E-04 
      6566    66.006  2.80E+02       144            2.11E-04 
      6567    66.014  1.17E+02       144            2.19E-04 
      6568    66.021  1.32E+02       144            2.18E-04 
      6569    66.029  2.70E+01       144            2.23E-04 
      6570    66.037  9.80E+01       144            2.20E-04 
      6571    66.045  1.10E+02       145            2.19E-04 
      6572    66.052  1.14E+02       145            2.19E-04 
      6573    66.060  7.90E+01       145            2.21E-04 
      6574    66.068  1.56E+02       146            2.17E-04 
      6575    66.076  1.83E+02       149            2.16E-04 
      6576    66.084  1.00E+00       150            2.25E-04 
      6577    66.091  2.34E+02       151            2.13E-04 
      6578    66.099  1.45E+02       153            2.18E-04 
      6579    66.107  5.00E+00       155            2.24E-04 
      6580    66.115  5.70E+01       159            2.22E-04 
      6581    66.122  6.30E+01       163            2.22E-04 
      6582    66.130  9.70E+01       168            2.20E-04 
      6583    66.138  8.40E+01       174            2.21E-04 
      6584    66.146  9.20E+01       183            2.20E-04 
      6585    66.153  1.91E+02       193            2.16E-04 
      6586    66.161  2.23E+02       205            2.14E-04 
      6587    66.169  1.71E+02       221            2.17E-04 
      6588    66.177  1.81E+02       239            2.16E-04 
      6589    66.185  2.18E+02       261            2.14E-04 
      6590    66.192  2.76E+02       286            2.12E-04 
      6591    66.200  3.27E+02       315            2.10E-04 
      6592    66.208  1.78E+02       349            2.16E-04 
      6593    66.216  2.59E+02       387            2.13E-04 
      6594    66.223  4.22E+02       428            2.06E-04 
      6595    66.231  4.73E+02       474            2.04E-04 
      6596    66.239  3.25E+02       523            2.10E-04 
      6597    66.247  6.11E+02       574            1.98E-04 
      6598    66.254  6.28E+02       628            1.97E-04 
      6599    66.262  7.31E+02       682            1.93E-04 
      6600    66.270  8.58E+02       736            1.89E-04 
      6601    66.278  8.33E+02       788            1.90E-04 
      6602    66.285  8.56E+02       837            1.89E-04 
      6603    66.293  9.67E+02       882            1.85E-04 
      6604    66.301  9.58E+02       921            1.85E-04 
      6605    66.309  8.84E+02       953            1.88E-04 
      6606    66.317  9.81E+02       975            1.85E-04 
      6607    66.324  1.04E+03       989            1.83E-04 
      6608    66.332  1.04E+03       992            1.83E-04 
      6609    66.340  9.17E+02       985            1.87E-04 
      6610    66.348  1.00E+03       969            1.84E-04 
      6611    66.355  9.96E+02       943            1.84E-04 
      6612    66.363  8.72E+02       908            1.89E-04 
      6613    66.371  8.15E+02       867            1.91E-04 
      6614    66.379  7.85E+02       821            1.92E-04 
      6615    66.386  7.76E+02       770            1.92E-04 
      6616    66.394  6.57E+02       717            1.97E-04 
      6617    66.402  6.13E+02       663            1.98E-04 
      6618    66.410  7.30E+02       609            1.94E-04 
      6619    66.418  5.79E+02       556            2.00E-04 
      6620    66.425  3.73E+02       505            2.08E-04 
      6621    66.433  3.95E+02       457            2.07E-04 
      6622    66.441  3.08E+02       412            2.11E-04 
      6623    66.449  3.07E+02       372            2.11E-04 
      6624    66.456  3.03E+02       335            2.12E-04 
      6625    66.464  3.20E+02       303            2.11E-04 
      6626    66.472  2.74E+02       275            2.13E-04 
      6627    66.480  3.97E+02       251            2.08E-04 
      6628    66.487  2.15E+02       230            2.16E-04 
      6629    66.495  1.93E+02       213            2.17E-04 
      6630    66.503  1.49E+02       198            2.19E-04 
      6631    66.511  6.90E+01       186            2.23E-04 
      6632    66.519  2.23E+02       177            2.15E-04 
      6633    66.526  8.90E+01       169            2.22E-04 
      6634    66.534  1.04E+02       163            2.21E-04 
      6635    66.542  4.50E+01       158            2.24E-04 
      6636    66.550  1.59E+02       148            2.19E-04 
      6637    66.557  1.81E+02       145            2.18E-04 
      6638    66.565  1.70E+02       143            2.18E-04 
      6639    66.573  1.60E+02       141            2.19E-04 
      6640    66.581  2.03E+02       140            2.17E-04 
      6641    66.588  5.70E+01       138            2.24E-04 
      6642    66.596  1.96E+02       138            2.17E-04 
      6643    66.604  1.06E+02       137            2.21E-04 
      6644    66.612  1.71E+02       137            2.18E-04 
      6645    66.619  6.30E+01       136            2.24E-04 
      6646    66.627  9.10E+01       136            2.22E-04 
      6647    66.635  8.70E+01       136            2.22E-04 
      6648    66.643  1.41E+02       135            2.20E-04 
      6649    66.651  1.23E+02       135            2.21E-04 
      6650    66.658  1.88E+02       135            2.18E-04 
      6651    66.666  7.90E+01       135            2.23E-04 
      6652    66.674  8.70E+01       135            2.23E-04 
      6653    66.682  8.90E+01       135            2.23E-04 
      6654    66.689  7.30E+01       135            2.23E-04 
      6655    66.697  1.01E+02       135            2.22E-04 
      6656    66.705  1.22E+02       135            2.21E-04 
      6657    66.713  9.70E+01       135            2.22E-04 
      6658    66.720 -1.00E+00       135            2.27E-04 
      6659    66.728 -1.00E+00       135            2.27E-04 
      6660    66.736  2.19E+02       135            2.17E-04 
      6661    66.744  6.80E+01       135            2.24E-04 
      6662    66.752  3.70E+01       135            2.25E-04 
      6663    66.759  5.90E+01       135            2.24E-04 
      6664    66.767  2.40E+02       135            2.16E-04 
      6665    66.775  7.20E+01       135            2.24E-04 
      6666    66.783  8.00E+01       136            2.23E-04 
      6667    66.790  8.00E+01       136            2.23E-04 
      6668    66.798  2.44E+02       136            2.15E-04 
      6669    66.806  2.37E+02       136            2.16E-04 
      6670    66.814  7.50E+01       136            2.24E-04 
      6671    66.821  1.31E+02       137            2.21E-04 
      6672    66.829  1.22E+02       137            2.21E-04 
      6673    66.837  3.90E+01       137            2.26E-04 
      6674    66.845  1.11E+02       137            2.22E-04 
      6675    66.852  8.20E+01       138            2.23E-04 
      6676    66.860 -6.20E+01       138            2.31E-04 
      6677    66.868  1.14E+02       138            2.22E-04 
      6678    66.876  2.05E+02       139            2.17E-04 
      6679    66.884  7.00E+01       139            2.24E-04 
      6680    66.891  8.00E+00       140            2.27E-04 
      6681    66.899  2.44E+02       140            2.16E-04 
      6682    66.907  4.00E+01       140            2.26E-04 
      6683    66.915  1.84E+02       141            2.19E-04 
      6684    66.922  3.40E+01       141            2.26E-04 
      6685    66.930  6.10E+01       142            2.25E-04 
      6686    66.938  2.51E+02       143            2.15E-04 
      6687    66.946  1.38E+02       143            2.21E-04 
      6688    66.953  1.33E+02       144            2.21E-04 
      6689    66.961  2.55E+02       145            2.15E-04 
      6690    66.969  1.39E+02       145            2.21E-04 
      6691    66.977  9.10E+01       146            2.23E-04 
      6692    66.985  1.49E+02       147            2.20E-04 
      6693    66.992  1.51E+02       148            2.20E-04 
      6694    67.000  9.10E+01       149            2.23E-04 
      6695    67.008 -1.40E+01       150            2.29E-04 
      6696    67.016  1.17E+02       151            2.22E-04 
      6697    67.023  1.34E+02       152            2.21E-04 
      6698    67.031  1.13E+02       153            2.22E-04 
      6699    67.039  1.54E+02       154            2.20E-04 
      6700    67.047  4.30E+01       156            2.26E-04 
      6701    67.054  8.90E+01       157            2.24E-04 
      6702    67.062  2.10E+02       159            2.18E-04 
      6703    67.070  2.22E+02       160            2.17E-04 
      6704    67.078  2.12E+02       162            2.18E-04 
      6705    67.086  8.60E+01       165            2.24E-04 
      6706    67.093  4.80E+01       167            2.26E-04 
      6707    67.101  1.85E+02       170            2.19E-04 
      6708    67.109  1.60E+02       173            2.20E-04 
      6709    67.117  1.79E+02       177            2.19E-04 
      6710    67.124  3.70E+01       182            2.26E-04 
      6711    67.132  1.49E+02       187            2.21E-04 
      6712    67.140  1.86E+02       194            2.19E-04 
      6713    67.148  1.45E+02       202            2.21E-04 
      6714    67.155  7.40E+01       213            2.25E-04 
      6715    67.163  1.81E+02       225            2.19E-04 
      6716    67.171  2.10E+02       240            2.18E-04 
      6717    67.179  1.32E+02       258            2.22E-04 
      6718    67.186  1.62E+02       280            2.20E-04 
      6719    67.194  2.92E+02       306            2.14E-04 
      6720    67.202  3.52E+02       336            2.11E-04 
      6721    67.210  3.05E+02       369            2.14E-04 
      6722    67.218  4.37E+02       407            2.08E-04 
      6723    67.225  5.82E+02       449            2.02E-04 
      6724    67.233  6.44E+02       493            1.99E-04 
      6725    67.241  6.16E+02       540            2.00E-04 
      6726    67.249  6.77E+02       589            1.98E-04 
      6727    67.256  6.29E+02       637            2.00E-04 
      6728    67.264  8.23E+02       684            1.92E-04 
      6729    67.272  7.33E+02       727            1.96E-04 
      6730    67.280  7.98E+02       767            1.93E-04 
      6731    67.287  8.65E+02       800            1.91E-04 
      6732    67.295  7.76E+02       827            1.94E-04 
      6733    67.303  8.63E+02       849            1.91E-04 
      6734    67.311  8.37E+02       867            1.92E-04 
      6735    67.319  8.66E+02       884            1.91E-04 
      6736    67.326  7.87E+02       904            1.94E-04 
      6737    67.334  7.32E+02       931            1.96E-04 
      6738    67.342  9.01E+02       969            1.90E-04 
      6739    67.350  1.04E+03  1.02E+03            1.85E-04 
      6740    67.357  1.06E+03  1.09E+03            1.84E-04 
      6741    67.365  1.25E+03  1.18E+03            1.78E-04 
      6742    67.373  1.34E+03  1.29E+03            1.75E-04 
      6743    67.381  1.55E+03  1.42E+03            1.69E-04 
      6744    67.388  1.67E+03  1.57E+03            1.66E-04 
      6745    67.396  1.89E+03  1.73E+03            1.60E-04 
      6746    67.404  2.25E+03  1.91E+03            1.51E-04 
      6747    67.412  2.46E+03  2.09E+03            1.46E-04 
      6748    67.419  2.51E+03  2.26E+03            1.45E-04 
      6749    67.427  2.78E+03  2.43E+03            1.40E-04 
      6750    67.435  2.93E+03  2.57E+03            1.37E-04 
      6751    67.443  2.94E+03  2.67E+03            1.37E-04 
      6752    67.451  3.26E+03  2.74E+03            1.31E-04 
      6753    67.458  3.29E+03  2.75E+03            1.31E-04 
      6754    67.466  3.00E+03  2.72E+03            1.36E-04 
      6755    67.474  2.81E+03  2.63E+03            1.39E-04 
      6756    67.482  2.90E+03  2.51E+03            1.38E-04 
      6757    67.489  2.74E+03  2.35E+03            1.41E-04 
      6758    67.497  2.34E+03  2.17E+03            1.49E-04 
      6759    67.505  2.17E+03  1.97E+03            1.53E-04 
      6760    67.513  1.83E+03  1.77E+03            1.62E-04 
      6761    67.520  1.69E+03  1.57E+03            1.65E-04 
      6762    67.528  1.40E+03  1.38E+03            1.74E-04 
      6763    67.536  1.23E+03  1.20E+03            1.79E-04 
      6764    67.544  1.27E+03  1.04E+03            1.78E-04 
      6765    67.552  8.45E+02       894            1.92E-04 
      6766    67.559  6.20E+02       767            2.01E-04 
      6767    67.567  8.76E+02       658            1.91E-04 
      6768    67.575  7.20E+02       566            1.97E-04 
      6769    67.583  6.03E+02       489            2.02E-04 
      6770    67.590  4.45E+02       427            2.08E-04 
      6771    67.598  3.75E+02       376            2.11E-04 
      6772    67.606  3.35E+02       336            2.13E-04 
      6773    67.614  4.45E+02       304            2.08E-04 
      6774    67.621  2.76E+02       279            2.16E-04 
      6775    67.629  3.39E+02       259            2.13E-04 
      6776    67.637  1.82E+02       250            2.20E-04 
      6777    67.645  3.69E+02       238            2.12E-04 
      6778    67.652  1.82E+02       228            2.20E-04 
      6779    67.660  2.30E+02       220            2.18E-04 
      6780    67.668  2.83E+02       213            2.16E-04 
      6781    67.676  2.57E+02       207            2.17E-04 
      6782    67.684  2.74E+02       203            2.16E-04 
      6783    67.691  2.95E+02       199            2.15E-04 
      6784    67.699  1.38E+02       195            2.23E-04 
      6785    67.707  8.70E+01       192            2.25E-04 
      6786    67.715  2.56E+02       190            2.17E-04 
      6787    67.722  2.50E+02       187            2.17E-04 
      6788    67.730  2.17E+02       185            2.19E-04 
      6789    67.738  1.64E+02       184            2.21E-04 
      6790    67.746  2.94E+02       183            2.15E-04 
      6791    67.753  2.35E+02       182            2.18E-04 
      6792    67.761  1.29E+02       182            2.23E-04 
      6793    67.769  2.25E+02       182            2.19E-04 
      6794    67.777  5.60E+01       183            2.27E-04 
      6795    67.785  1.92E+02       184            2.20E-04 
      6796    67.792  1.71E+02       187            2.21E-04 
      6797    67.800  1.27E+02       191            2.23E-04 
      6798    67.808  2.14E+02       197            2.19E-04 
      6799    67.816  1.27E+02       204            2.23E-04 
      6800    67.823  2.12E+02       214            2.19E-04 
      6801    67.831  2.83E+02       226            2.16E-04 
      6802    67.839  2.13E+02       241            2.19E-04 
      6803    67.847  2.28E+02       260            2.19E-04 
      6804    67.854  3.43E+02       282            2.13E-04 
      6805    67.862  3.82E+02       310            2.12E-04 
      6806    67.870  3.74E+02       342            2.12E-04 
      6807    67.878  4.23E+02       380            2.10E-04 
      6808    67.886  2.84E+02       424            2.16E-04 
      6809    67.893  4.90E+02       473            2.07E-04 
      6810    67.901  5.17E+02       529            2.06E-04 
      6811    67.909  5.82E+02       590            2.03E-04 
      6812    67.917  7.22E+02       657            1.97E-04 
      6813    67.924  7.45E+02       729            1.97E-04 
      6814    67.932  7.06E+02       805            1.98E-04 
      6815    67.940  9.44E+02       884            1.89E-04 
      6816    67.948  1.03E+03       964            1.86E-04 
      6817    67.955  1.16E+03  1.04E+03            1.82E-04 
      6818    67.963  1.10E+03  1.12E+03            1.84E-04 
      6819    67.971  1.36E+03  1.20E+03            1.76E-04 
      6820    67.979  1.41E+03  1.27E+03            1.74E-04 
      6821    67.986  1.35E+03  1.33E+03            1.76E-04 
      6822    67.994  1.53E+03  1.38E+03            1.70E-04 
      6823    68.002  1.46E+03  1.42E+03            1.73E-04 
      6824    68.010  1.58E+03  1.44E+03            1.69E-04 
      6825    68.018  1.68E+03  1.45E+03            1.66E-04 
      6826    68.025  1.33E+03  1.45E+03            1.77E-04 
      6827    68.033  1.48E+03  1.43E+03            1.72E-04 
      6828    68.041  1.36E+03  1.40E+03            1.76E-04 
      6829    68.049  1.50E+03  1.36E+03            1.71E-04 
      6830    68.056  1.37E+03  1.30E+03            1.75E-04 
      6831    68.064  1.22E+03  1.24E+03            1.80E-04 
      6832    68.072  1.08E+03  1.17E+03            1.85E-04 
      6833    68.080  1.11E+03  1.09E+03            1.84E-04 
      6834    68.087  1.00E+03  1.01E+03            1.87E-04 
      6835    68.095  1.08E+03       928            1.85E-04 
      6836    68.103  9.03E+02       848            1.91E-04 
      6837    68.111  6.70E+02       769            2.00E-04 
      6838    68.119  6.20E+02       694            2.02E-04 
      6839    68.126  5.95E+02       623            2.03E-04 
      6840    68.134  6.41E+02       557            2.01E-04 
      6841    68.142  5.48E+02       497            2.05E-04 
      6842    68.150  6.23E+02       442            2.02E-04 
      6843    68.157  4.93E+02       394            2.07E-04 
      6844    68.165  3.66E+02       352            2.13E-04 
      6845    68.173  2.76E+02       315            2.17E-04 
      6846    68.181  3.24E+02       283            2.15E-04 
      6847    68.188  3.08E+02       257            2.16E-04 
      6848    68.196  1.69E+02       234            2.22E-04 
      6849    68.204  1.98E+02       216            2.21E-04 
      6850    68.212  2.59E+02       200            2.18E-04 
      6851    68.219  2.13E+02       188            2.20E-04 
      6852    68.227  2.73E+02       178            2.17E-04 
      6853    68.235  2.35E+02       170            2.19E-04 
      6854    68.243  2.72E+02       164            2.17E-04 
      6855    68.251  2.11E+02       158            2.20E-04 
      6856    68.258  2.52E+02       154            2.18E-04 
      6857    68.266  1.80E+02       151            2.22E-04 
      6858    68.274  4.00E+01       149            2.29E-04 
      6859    68.282  1.68E+02       147            2.23E-04 
      6860    68.289  2.42E+02       145            2.19E-04 
      6861    68.297  1.30E+02       144            2.24E-04 
      6862    68.305  1.37E+02       142            2.24E-04 
      6863    68.313  2.40E+02       141            2.19E-04 
      6864    68.320  1.58E+02       141            2.23E-04 
      6865    68.328  9.10E+01       140            2.27E-04 
      6866    68.336  8.40E+01       139            2.27E-04 
      6867    68.344  1.16E+02       139            2.25E-04 
      6868    68.352  2.80E+01       138            2.30E-04 
      6869    68.359  1.27E+02       138            2.25E-04 
      6870    68.367  8.90E+01       137            2.27E-04 
      6871    68.375  6.10E+01       137            2.28E-04 
      6872    68.383  5.30E+01       136            2.29E-04 
      6873    68.390 -2.00E+00       136            2.32E-04 
      6874    68.398  2.70E+02       128            2.18E-04 
      6875    68.406  2.27E+02       128            2.20E-04 
      6876    68.414  2.07E+02       128            2.21E-04 
      6877    68.421  7.60E+01       128            2.28E-04 
      6878    68.429  1.20E+02       128            2.25E-04 
      6879    68.437  1.22E+02       128            2.25E-04 
      6880    68.445  7.60E+01       128            2.28E-04 
      6881    68.452 -9.30E+01       128            2.37E-04 
      6882    68.460  6.50E+01       128            2.28E-04 
      6883    68.468  1.19E+02       128            2.25E-04 
      6884    68.476  1.54E+02       128            2.24E-04 
      6885    68.484  3.40E+01       128            2.30E-04 
      6886    68.491  1.88E+02       128            2.22E-04 
      6887    68.499  8.80E+01       128            2.27E-04 
      6888    68.507  1.91E+02       127            2.22E-04 
      6889    68.515  9.80E+01       127            2.27E-04 
      6890    68.522  1.27E+02       127            2.25E-04 
      6891    68.530  1.13E+02       127            2.26E-04 
      6892    68.538  1.76E+02       127            2.23E-04 
      6893    68.546  1.66E+02       127            2.23E-04 
      6894    68.553  1.30E+02       127            2.25E-04 
      6895    68.561  1.61E+02       127            2.24E-04 
      6896    68.569  1.27E+02       127            2.25E-04 
      6897    68.577  9.90E+01       127            2.27E-04 
      6898    68.585  9.40E+01       127            2.27E-04 
      6899    68.592  1.66E+02       127            2.23E-04 
      6900    68.600  9.20E+01       127            2.27E-04 
      6901    68.608  1.25E+02       127            2.25E-04 
      6902    68.616  2.03E+02       127            2.22E-04 
      6903    68.623 -1.50E+01       127            2.33E-04 
      6904    68.631  1.55E+02       127            2.24E-04 
      6905    68.639  5.40E+01       127            2.29E-04 
      6906    68.647  1.48E+02       127            2.24E-04 
      6907    68.654  1.20E+02       127            2.26E-04 
      6908    68.662  1.18E+02       127            2.26E-04 
      6909    68.670  1.57E+02       127            2.24E-04 
      6910    68.678  1.03E+02       126            2.27E-04 
      6911    68.686  1.03E+02       126            2.27E-04 
      6912    68.693  6.90E+01       126            2.29E-04 
      6913    68.701  1.28E+02       126            2.26E-04 
      6914    68.709  1.03E+02       126            2.27E-04 
      6915    68.717  9.70E+01       126            2.27E-04 
      6916    68.724  1.14E+02       126            2.26E-04 
      6917    68.732  1.56E+02       126            2.24E-04 
      6918    68.740  1.53E+02       126            2.24E-04 
      6919    68.748  1.49E+02       126            2.25E-04 
      6920    68.755  7.50E+01       126            2.28E-04 
      6921    68.763  1.22E+02       126            2.26E-04 
      6922    68.771  1.60E+02       126            2.24E-04 
      6923    68.779  1.62E+02       126            2.24E-04 
      6924    68.786  2.23E+02       126            2.21E-04 
      6925    68.794 -1.80E+01       126            2.33E-04 
      6926    68.802  8.60E+01       126            2.28E-04 
      6927    68.810  1.64E+02       126            2.24E-04 
      6928    68.818  6.40E+01       126            2.29E-04 
      6929    68.825  1.00E+00       126            2.33E-04 
      6930    68.833  3.00E+01       126            2.31E-04 
      6931    68.841 -7.00E+00       124            2.33E-04 
      6932    68.849  1.31E+02       124            2.26E-04 
      6933    68.856  6.50E+01       124            2.29E-04 
      6934    68.864  1.49E+02       124            2.25E-04 
      6935    68.872  2.20E+02       124            2.21E-04 
      6936    68.880  2.14E+02       124            2.22E-04 
      6937    68.887  2.01E+02       124            2.22E-04 
      6938    68.895  7.50E+01       124            2.29E-04 
      6939    68.903  1.07E+02       124            2.27E-04 
      6940    68.911  1.27E+02       124            2.26E-04 
      6941    68.919  1.87E+02       124            2.23E-04 
      6942    68.926  1.19E+02       124            2.27E-04 
      6943    68.934  2.59E+02       124            2.20E-04 
      6944    68.942  1.93E+02       124            2.23E-04 
      6945    68.950  1.75E+02       124            2.24E-04 
      6946    68.957  1.80E+01       124            2.32E-04 
      6947    68.965  1.33E+02       124            2.26E-04 
      6948    68.973  2.04E+02       124            2.22E-04 
      6949    68.981  2.37E+02       124            2.21E-04 
      6950    68.988  1.03E+02       124            2.28E-04 
      6951    68.996  1.45E+02       124            2.25E-04 
      6952    69.004  9.80E+01       124            2.28E-04 
      6953    69.012  1.22E+02       124            2.27E-04 
      6954    69.019  1.82E+02       124            2.24E-04 
      6955    69.027  8.40E+01       124            2.29E-04 
      6956    69.035  1.20E+02       124            2.27E-04 
      6957    69.043 -3.50E+01       124            2.35E-04 
      6958    69.051  1.53E+02       124            2.25E-04 
      6959    69.058  1.87E+02       124            2.23E-04 
      6960    69.066  1.82E+02       124            2.24E-04 
      6961    69.074  1.38E+02       124            2.26E-04 
      6962    69.082  3.90E+01       124            2.31E-04 
      6963    69.089  1.04E+02       124            2.28E-04 
      6964    69.097  3.80E+01       124            2.31E-04 
      6965    69.105  9.70E+01       124            2.28E-04 
      6966    69.113  8.20E+01       124            2.29E-04 
      6967    69.120  2.90E+02       124            2.19E-04 
      6968    69.128  1.44E+02       124            2.26E-04 
      6969    69.136  5.50E+01       124            2.30E-04 
      6970    69.144  1.61E+02       124            2.25E-04 
      6971    69.152  1.10E+02       124            2.28E-04 
      6972    69.159  3.60E+01       124            2.32E-04 
      6973    69.167  1.07E+02       124            2.28E-04 
      6974    69.175  6.60E+01       124            2.30E-04 
      6975    69.183  1.42E+02       124            2.26E-04 
      6976    69.190  1.24E+02       124            2.27E-04 
      6977    69.198  1.98E+02       124            2.23E-04 
      6978    69.206  9.50E+01       124            2.29E-04 
      6979    69.214  2.37E+02       124            2.21E-04 
      6980    69.221  3.50E+01       124            2.32E-04 
      6981    69.229  1.75E+02       124            2.24E-04 
      6982    69.237 -3.90E+01       124            2.36E-04 
      6983    69.245  8.10E+01       124            2.29E-04 
      6984    69.252  9.00E+01       124            2.29E-04 
      6985    69.260  9.90E+01       124            2.28E-04 
      6986    69.268  1.83E+02       124            2.24E-04 
      6987    69.276  2.02E+02       124            2.23E-04 
      6988    69.284  2.98E+02       124            2.19E-04 
      6989    69.291  1.79E+02       124            2.24E-04 
      6990    69.299  9.90E+01       124            2.29E-04 
      6991    69.307  1.51E+02       124            2.26E-04 
      6992    69.315  7.30E+01       124            2.30E-04 
      6993    69.322  1.79E+02       124            2.24E-04 
      6994    69.330  8.50E+01       124            2.29E-04 
      6995    69.338  6.70E+01       124            2.30E-04 
      6996    69.346  1.58E+02       124            2.26E-04 
      6997    69.353  1.58E+02       124            2.26E-04 
      6998    69.361  1.51E+02       128            2.26E-04 
      6999    69.369  1.59E+02       128            2.26E-04 
      7000    69.377  9.00E+01       128            2.29E-04 
      7001    69.385  1.17E+02       128            2.28E-04 
      7002    69.392  1.37E+02       128            2.27E-04 
      7003    69.400  9.20E+01       128            2.29E-04 
      7004    69.408  1.49E+02       128            2.26E-04 
      7005    69.416  1.57E+02       128            2.26E-04 
      7006    69.423  2.15E+02       128            2.23E-04 
      7007    69.431  2.03E+02       128            2.23E-04 
      7008    69.439  2.89E+02       128            2.19E-04 
      7009    69.447  1.05E+02       128            2.28E-04 
      7010    69.454  9.90E+01       128            2.29E-04 
      7011    69.462  1.36E+02       128            2.27E-04 
      7012    69.470  5.50E+01       128            2.31E-04 
      7013    69.478  1.88E+02       129            2.24E-04 
      7014    69.486  1.13E+02       129            2.28E-04 
      7015    69.493  9.70E+01       129            2.29E-04 
      7016    69.501  1.09E+02       129            2.28E-04 
      7017    69.509  2.12E+02       129            2.23E-04 
      7018    69.517  1.56E+02       129            2.26E-04 
      7019    69.524  1.23E+02       129            2.28E-04 
      7020    69.532  8.00E+01       129            2.30E-04 
      7021    69.540  6.30E+01       129            2.31E-04 
      7022    69.548  1.03E+02       129            2.29E-04 
      7023    69.555  1.67E+02       129            2.25E-04 
      7024    69.563  9.50E+01       129            2.29E-04 
      7025    69.571  1.91E+02       129            2.24E-04 
      7026    69.579  1.68E+02       129            2.25E-04 
      7027    69.586  2.33E+02       129            2.22E-04 
      7028    69.594  1.77E+02       129            2.25E-04 
      7029    69.602  1.80E+02       130            2.25E-04 
      7030    69.610  1.36E+02       130            2.27E-04 
      7031    69.618  1.52E+02       130            2.26E-04 
      7032    69.625  1.80E+02       130            2.25E-04 
      7033    69.633  6.70E+01       130            2.31E-04 
      7034    69.641  1.73E+02       130            2.25E-04 
      7035    69.649  6.60E+01       131            2.31E-04 
      7036    69.656  2.15E+02       131            2.23E-04 
      7037    69.664  1.53E+02       131            2.26E-04 
      7038    69.672  1.55E+02       131            2.26E-04 
      7039    69.680  1.65E+02       131            2.26E-04 
      7040    69.687  9.70E+01       131            2.29E-04 
      7041    69.695  8.30E+01       131            2.30E-04 
      7042    69.703  1.64E+02       131            2.26E-04 
      7043    69.711  1.34E+02       131            2.27E-04 
      7044    69.719  2.24E+02       131            2.23E-04 
      7045    69.726  1.62E+02       132            2.26E-04 
      7046    69.734  1.50E+02       132            2.26E-04 
      7047    69.742  1.58E+02       132            2.26E-04 
      7048    69.750  1.38E+02       132            2.27E-04 
      7049    69.757  1.01E+02       132            2.29E-04 
      7050    69.765  1.90E+01       132            2.33E-04 
      7051    69.773  2.74E+02       132            2.20E-04 
      7052    69.781  1.88E+02       132            2.25E-04 
      7053    69.788  3.20E+01       133            2.33E-04 
      7054    69.796  1.65E+02       133            2.26E-04 
      7055    69.804  1.21E+02       133            2.28E-04 
      7056    69.812  1.69E+02       133            2.26E-04 
      7057    69.819  1.06E+02       133            2.29E-04 
      7058    69.827  2.27E+02       133            2.23E-04 
      7059    69.835  7.70E+01       134            2.30E-04 
      7060    69.843  1.30E+02       134            2.28E-04 
      7061    69.851  1.06E+02       134            2.29E-04 
      7062    69.858  1.35E+02       134            2.27E-04 
      7063    69.866  8.60E+01       134            2.30E-04 
      7064    69.874  1.47E+02       134            2.27E-04 
      7065    69.882  2.31E+02       135            2.23E-04 
      7066    69.889  1.46E+02       135            2.27E-04 
      7067    69.897  1.40E+02       135            2.27E-04 
      7068    69.905  1.57E+02       135            2.26E-04 
      7069    69.913  1.42E+02       135            2.27E-04 
      7070    69.920  8.70E+01       136            2.30E-04 
      7071    69.928  1.79E+02       136            2.25E-04 
      7072    69.936  1.28E+02       136            2.28E-04 
      7073    69.944  4.20E+01       136            2.33E-04 
      7074    69.952  3.12E+02       137            2.19E-04 
      7075    69.959  1.25E+02       137            2.28E-04 
      7076    69.967  1.47E+02       137            2.27E-04 
      7077    69.975  1.13E+02       137            2.29E-04 
      7078    69.983  1.11E+02       138            2.29E-04 
      7079    69.990  1.98E+02       138            2.24E-04 
      7080    69.998  2.06E+02       139            2.24E-04 
      7081    70.006  1.55E+02       139            2.27E-04 
      7082    70.014  9.90E+01       140            2.30E-04 
      7083    70.021  2.10E+02       140            2.24E-04 
      7084    70.029  2.01E+02       141            2.24E-04 
      7085    70.037  1.44E+02       142            2.27E-04 
      7086    70.045  1.25E+02       143            2.28E-04 
      7087    70.052  1.57E+02       144            2.27E-04 
      7088    70.060  2.49E+02       145            2.22E-04 
      7089    70.068  2.26E+02       146            2.23E-04 
      7090    70.076  2.17E+02       148            2.24E-04 
      7091    70.084  1.32E+02       149            2.28E-04 
      7092    70.091  1.41E+02       151            2.27E-04 
      7093    70.099  1.40E+02       153            2.28E-04 
      7094    70.107  1.91E+02       155            2.25E-04 
      7095    70.115  1.83E+02       157            2.25E-04 
      7096    70.122  1.76E+02       159            2.26E-04 
      7097    70.130  2.43E+02       162            2.22E-04 
      7098    70.138  2.24E+02       164            2.23E-04 
      7099    70.146  9.90E+01       166            2.30E-04 
      7100    70.153  8.10E+01       169            2.31E-04 
      7101    70.161  2.34E+02       171            2.23E-04 
      7102    70.169  2.53E+02       173            2.22E-04 
      7103    70.177  1.19E+02       175            2.29E-04 
      7104    70.185  2.07E+02       177            2.24E-04 
      7105    70.192  1.17E+02       178            2.29E-04 
      7106    70.200  1.60E+02       180            2.27E-04 
      7107    70.208  9.10E+01       181            2.30E-04 
      7108    70.216  2.45E+02       182            2.22E-04 
      7109    70.223  2.11E+02       182            2.24E-04 
      7110    70.231  1.70E+02       182            2.26E-04 
      7111    70.239  2.06E+02       182            2.24E-04 
      7112    70.247  1.17E+02       182            2.29E-04 
      7113    70.254  2.93E+02       181            2.20E-04 
      7114    70.262  1.16E+02       181            2.29E-04 
      7115    70.270  1.59E+02       180            2.27E-04 
      7116    70.278  2.42E+02       179            2.23E-04 
      7117    70.286  1.87E+02       178            2.25E-04 
      7118    70.293  1.53E+02       177            2.27E-04 
      7119    70.301  1.71E+02       177            2.26E-04 
      7120    70.309  4.60E+01       176            2.33E-04 
      7121    70.317  1.54E+02       175            2.27E-04 
      7122    70.324  2.30E+02       175            2.23E-04 
      7123    70.332  1.59E+02       175            2.27E-04 
      7124    70.340  2.18E+02       175            2.24E-04 
      7125    70.348  1.77E+02       175            2.26E-04 
      7126    70.355  7.00E+01       176            2.32E-04 
      7127    70.363  1.05E+02       176            2.30E-04 
      7128    70.371  2.13E+02       177            2.24E-04 
      7129    70.379  1.94E+02       178            2.25E-04 
      7130    70.386  1.63E+02       180            2.27E-04 
      7131    70.394  1.35E+02       182            2.28E-04 
      7132    70.402  2.73E+02       183            2.21E-04 
      7133    70.410  1.56E+02       186            2.27E-04 
      7134    70.418  1.64E+02       188            2.27E-04 
      7135    70.425  2.33E+02       190            2.23E-04 
      7136    70.433  1.94E+02       193            2.25E-04 
      7137    70.441  2.22E+02       196            2.24E-04 
      7138    70.449  1.88E+02       200            2.26E-04 
      7139    70.456  1.29E+02       203            2.29E-04 
      7140    70.464  1.87E+02       207            2.26E-04 
      7141    70.472  1.22E+02       212            2.29E-04 
      7142    70.480  2.46E+02       217            2.23E-04 
      7143    70.487  2.18E+02       222            2.24E-04 
      7144    70.495  2.27E+02       228            2.24E-04 
      7145    70.503  2.05E+02       235            2.25E-04 
      7146    70.511  1.79E+02       242            2.26E-04 
      7147    70.519  2.46E+02       251            2.23E-04 
      7148    70.526  1.76E+02       261            2.26E-04 
      7149    70.534  2.13E+02       273            2.24E-04 
      7150    70.542  2.21E+02       288            2.24E-04 
      7151    70.550  1.96E+02       306            2.25E-04 
      7152    70.557  1.71E+02       329            2.27E-04 
      7153    70.565  1.22E+02       357            2.29E-04 
      7154    70.573  2.80E+02       393            2.21E-04 
      7155    70.581  3.64E+02       438            2.17E-04 
      7156    70.588  3.83E+02       494            2.16E-04 
      7157    70.596  5.92E+02       564            2.07E-04 
      7158    70.604  5.33E+02       650            2.09E-04 
      7159    70.612  5.86E+02       755            2.07E-04 
      7160    70.619  7.64E+02       882            2.00E-04 
      7161    70.627  1.13E+03  1.03E+03            1.86E-04 
      7162    70.635  1.14E+03  1.21E+03            1.86E-04 
      7163    70.643  1.33E+03  1.41E+03            1.79E-04 
      7164    70.651  1.65E+03  1.64E+03            1.70E-04 
      7165    70.658  1.99E+03  1.90E+03            1.60E-04 
      7166    70.666  2.46E+03  2.18E+03            1.49E-04 
      7167    70.674  2.50E+03  2.47E+03            1.48E-04 
      7168    70.682  2.86E+03  2.78E+03            1.41E-04 
      7169    70.689  3.19E+03  3.09E+03            1.35E-04 
      7170    70.697  3.72E+03  3.39E+03            1.26E-04 
      7171    70.705  3.85E+03  3.67E+03            1.24E-04 
      7172    70.713  4.17E+03  3.92E+03            1.19E-04 
      7173    70.720  4.19E+03  4.13E+03            1.19E-04 
      7174    70.728  4.41E+03  4.27E+03            1.16E-04 
      7175    70.736  4.45E+03  4.34E+03            1.15E-04 
      7176    70.744  4.34E+03  4.33E+03            1.17E-04 
      7177    70.752  4.29E+03  4.25E+03            1.17E-04 
      7178    70.759  4.22E+03  4.10E+03            1.18E-04 
      7179    70.767  3.88E+03  3.89E+03            1.23E-04 
      7180    70.775  3.60E+03  3.64E+03            1.28E-04 
      7181    70.783  3.20E+03  3.35E+03            1.35E-04 
      7182    70.790  2.99E+03  3.05E+03            1.38E-04 
      7183    70.798  2.40E+03  2.74E+03            1.51E-04 
      7184    70.806  2.30E+03  2.44E+03            1.53E-04 
      7185    70.814  1.94E+03  2.15E+03            1.62E-04 
      7186    70.821  1.83E+03  1.88E+03            1.65E-04 
      7187    70.829  1.58E+03  1.63E+03            1.72E-04 
      7188    70.837  1.28E+03  1.41E+03            1.81E-04 
      7189    70.845  1.28E+03  1.21E+03            1.81E-04 
      7190    70.852  1.21E+03  1.04E+03            1.84E-04 
      7191    70.860  9.76E+02       900            1.92E-04 
      7192    70.868  8.08E+02       784            1.98E-04 
      7193    70.876  8.33E+02       691            1.97E-04 
      7194    70.884  7.95E+02       619            1.99E-04 
      7195    70.891  7.19E+02       566            2.02E-04 
      7196    70.899  5.45E+02       530            2.09E-04 
      7197    70.907  6.99E+02       508            2.03E-04 
      7198    70.915  7.95E+02       500            1.99E-04 
      7199    70.922  6.70E+02       502            2.04E-04 
      7200    70.930  7.54E+02       516            2.01E-04 
      7201    70.938  7.16E+02       538            2.02E-04 
      7202    70.946  7.82E+02       569            1.99E-04 
      7203    70.953  9.25E+02       606            1.94E-04 
      7204    70.961  9.11E+02       650            1.94E-04 
      7205    70.969  8.23E+02       697            1.98E-04 
      7206    70.977  9.57E+02       747            1.93E-04 
      7207    70.985  9.37E+02       797            1.94E-04 
      7208    70.992  1.09E+03       847            1.88E-04 
      7209    71.000  9.50E+02       891            1.93E-04 
      7210    71.008  1.03E+03       930            1.90E-04 
      7211    71.016  1.17E+03       959            1.85E-04 
      7212    71.023  1.14E+03       976            1.86E-04 
      7213    71.031  1.27E+03       980            1.82E-04 
      7214    71.039  1.08E+03       969            1.88E-04 
      7215    71.047  9.68E+02       946            1.92E-04 
      7216    71.054  8.15E+02       910            1.98E-04 
      7217    71.062  8.61E+02       865            1.97E-04 
      7218    71.070  8.52E+02       813            1.97E-04 
      7219    71.078  8.22E+02       756            1.98E-04 
      7220    71.086  7.33E+02       697            2.02E-04 
      7221    71.093  7.67E+02       637            2.00E-04 
      7222    71.101  5.77E+02       579            2.08E-04 
      7223    71.109  5.15E+02       524            2.11E-04 
      7224    71.117  6.43E+02       473            2.05E-04 
      7225    71.124  4.17E+02       427            2.15E-04 
      7226    71.132  3.80E+02       385            2.17E-04 
      7227    71.140  4.12E+02       348            2.16E-04 
      7228    71.148  2.49E+02       316            2.23E-04 
      7229    71.155  2.41E+02       289            2.24E-04 
      7230    71.163  1.50E+02       266            2.29E-04 
      7231    71.171  2.74E+02       248            2.22E-04 
      7232    71.179  2.93E+02       232            2.21E-04 
      7233    71.186  3.03E+02       219            2.21E-04 
      7234    71.194  2.21E+02       209            2.25E-04 
      7235    71.202  2.96E+02       200            2.21E-04 
      7236    71.210  2.51E+02       194            2.23E-04 
      7237    71.218  2.04E+02       188            2.26E-04 
      7238    71.225  1.70E+02       183            2.28E-04 
      7239    71.233  1.84E+02       180            2.27E-04 
      7240    71.241  1.12E+02       176            2.31E-04 
      7241    71.249  2.71E+02       174            2.23E-04 
      7242    71.256  2.97E+02       171            2.21E-04 
      7243    71.264  2.06E+02       169            2.26E-04 
      7244    71.272  1.77E+02       167            2.27E-04 
      7245    71.280  1.82E+02       165            2.27E-04 
      7246    71.287  1.48E+02       164            2.29E-04 
      7247    71.295  1.05E+02       162            2.31E-04 
      7248    71.303  2.41E+02       161            2.24E-04 
      7249    71.311  2.14E+02       160            2.25E-04 
      7250    71.319  1.35E+02       158            2.30E-04 
      7251    71.326  1.13E+02       157            2.31E-04 
      7252    71.334  1.69E+02       156            2.28E-04 
      7253    71.342  1.33E+02       155            2.30E-04 
      7254    71.350  1.81E+02       154            2.27E-04 
      7255    71.357  3.56E+02       153            2.19E-04 
      7256    71.365  2.72E+02       152            2.23E-04 
      7257    71.373  1.75E+02       152            2.28E-04 
      7258    71.381  1.96E+02       151            2.26E-04 
      7259    71.388  1.48E+02       150            2.29E-04 
      7260    71.396  1.96E+02       149            2.26E-04 
      7261    71.404  8.70E+01       149            2.32E-04 
      7262    71.412  1.68E+02       148            2.28E-04 
      7263    71.419  2.40E+01       148            2.36E-04 
      7264    71.427  1.45E+02       147            2.29E-04 
      7265    71.435  1.07E+02       146            2.31E-04 
      7266    71.443  1.78E+02       146            2.27E-04 
      7267    71.451  3.39E+02       145            2.19E-04 
      7268    71.458  1.56E+02       145            2.29E-04 
      7269    71.466 -5.30E+01       145            2.40E-04 
      7270    71.474  2.05E+02       144            2.26E-04 
      7271    71.482  4.20E+01       144            2.35E-04 
      7272    71.489  3.80E+01       143            2.35E-04 
      7273    71.497  2.41E+02       143            2.24E-04 
      7274    71.505  1.39E+02       142            2.30E-04 
      7275    71.513  1.98E+02       142            2.27E-04 
      7276    71.520  1.00E+02       142            2.32E-04 
      7277    71.528  7.40E+01       141            2.33E-04 
      7278    71.536  2.40E+02       141            2.24E-04 
      7279    71.544  9.50E+01       141            2.32E-04 
      7280    71.552  1.89E+02       141            2.27E-04 
      7281    71.559  8.30E+01       140            2.33E-04 
      7282    71.567  8.50E+01       140            2.33E-04 
      7283    71.575  2.17E+02       140            2.26E-04 
      7284    71.583  2.34E+02       139            2.25E-04 
      7285    71.590  1.80E+01       139            2.36E-04 
      7286    71.598 -1.00E+01       139            2.38E-04 
      7287    71.606  2.14E+02       139            2.26E-04 
      7288    71.614  8.80E+01       138            2.33E-04 
      7289    71.621  7.00E+01       138            2.33E-04 
      7290    71.629  7.80E+01       138            2.33E-04 
      7291    71.637  5.00E+00       138            2.37E-04 
      7292    71.645  5.80E+01       138            2.34E-04 
      7293    71.652 -6.00E+00       137            2.38E-04 
      7294    71.660  1.62E+02       137            2.29E-04 
      7295    71.668  2.90E+01       137            2.36E-04 
      7296    71.676  1.35E+02       137            2.30E-04 
      7297    71.684 -5.40E+01       137            2.40E-04 
      7298    71.691  8.00E+00       137            2.37E-04 
      7299    71.699  6.00E+00       136            2.37E-04 
      7300    71.707  2.00E+02       136            2.27E-04 
      7301    71.715  3.20E+01       136            2.36E-04 
      7302    71.722  2.09E+02       136            2.26E-04 
      7303    71.730  4.60E+01       136            2.35E-04 
      7304    71.738  1.16E+02       136            2.31E-04 
      7305    71.746  1.21E+02       136            2.31E-04 
      7306    71.753  1.26E+02       135            2.31E-04 
      7307    71.761  2.36E+02       135            2.25E-04 
      7308    71.769  7.40E+01       135            2.33E-04 
      7309    71.777  1.17E+02       135            2.31E-04 
      7310    71.785  1.14E+02       135            2.31E-04 
      7311    71.792  1.20E+01       135            2.37E-04 
      7312    71.800  2.11E+02       135            2.26E-04 
      7313    71.808  4.70E+01       135            2.35E-04 
      7314    71.816 -6.30E+01       135            2.41E-04 
      7315    71.823  5.20E+01       135            2.35E-04 
      7316    71.831  1.29E+02       134            2.30E-04 
      7317    71.839  1.95E+02       134            2.27E-04 
      7318    71.847  4.10E+01       134            2.35E-04 
      7319    71.854  4.30E+01       134            2.35E-04 
      7320    71.862  2.54E+02       134            2.24E-04 
      7321    71.870  1.55E+02       134            2.29E-04 
      7322    71.878  2.33E+02       134            2.25E-04 
      7323    71.886  3.60E+01       134            2.35E-04 
      7324    71.893  1.75E+02       134            2.28E-04 
      7325    71.901  2.10E+01       134            2.36E-04 
      7326    71.909  1.41E+02       134            2.30E-04 
      7327    71.917  2.12E+02       134            2.26E-04 
      7328    71.924  1.07E+02       134            2.32E-04 
      7329    71.932  5.80E+01       134            2.34E-04 
      7330    71.940  1.44E+02       134            2.30E-04 
      7331    71.948  2.60E+02       133            2.24E-04 
      7332    71.955  1.55E+02       133            2.29E-04 
      7333    71.963  1.33E+02       133            2.30E-04 
      7334    71.971  1.14E+02       133            2.31E-04 
      7335    71.979  2.32E+02       133            2.25E-04 
      7336    71.986  1.80E+01       133            2.36E-04 
      7337    71.994  9.40E+01       133            2.32E-04 
      7338    72.002  3.70E+01       133            2.35E-04 
      7339    72.010  3.70E+01       133            2.35E-04 
      7340    72.018  8.90E+01       133            2.33E-04 
      7341    72.025  4.00E+01       133            2.35E-04 
      7342    72.033  1.52E+02       133            2.29E-04 
      7343    72.041  1.61E+02       133            2.29E-04 
      7344    72.049  7.20E+01       133            2.33E-04 
      7345    72.056  1.31E+02       133            2.30E-04 
      7346    72.064  8.70E+01       133            2.33E-04 
      7347    72.072  7.70E+01       133            2.33E-04 
      7348    72.080 -4.00E+00       133            2.38E-04 
      7349    72.087  9.20E+01       133            2.32E-04 
      7350    72.095  1.63E+02       133            2.29E-04 
      7351    72.103  1.40E+01       133            2.37E-04 
      7352    72.111  1.46E+02       133            2.30E-04 
      7353    72.119  1.27E+02       130            2.31E-04 
      7354    72.126  8.40E+01       130            2.33E-04 
      7355    72.134  7.10E+01       130            2.34E-04 
      7356    72.142  9.20E+01       130            2.32E-04 
      7357    72.150  3.80E+01       130            2.35E-04 
      7358    72.157  7.90E+01       131            2.33E-04 
      7359    72.165  2.36E+02       131            2.25E-04 
      7360    72.173  7.10E+01       131            2.34E-04 
      7361    72.181  1.27E+02       131            2.31E-04 
      7362    72.188  1.04E+02       131            2.32E-04 
      7363    72.196  1.17E+02       131            2.31E-04 
      7364    72.204  1.34E+02       131            2.30E-04 
      7365    72.212  8.10E+01       132            2.33E-04 
      7366    72.219  9.80E+01       132            2.32E-04 
      7367    72.227  1.25E+02       132            2.31E-04 
      7368    72.235  2.50E+01       132            2.36E-04 
      7369    72.243  3.80E+01       132            2.35E-04 
      7370    72.251  9.10E+01       133            2.32E-04 
      7371    72.258  2.24E+02       133            2.25E-04 
      7372    72.266  6.50E+01       133            2.34E-04 
      7373    72.274  1.13E+02       134            2.31E-04 
      7374    72.282  1.80E+02       134            2.28E-04 
      7375    72.289 -5.30E+01       135            2.40E-04 
      7376    72.297  5.80E+01       135            2.34E-04 
      7377    72.305  1.12E+02       136            2.31E-04 
      7378    72.313  2.20E+01       137            2.36E-04 
      7379    72.320  8.70E+01       138            2.33E-04 
      7380    72.328  1.50E+01       139            2.37E-04 
      7381    72.336  1.29E+02       141            2.30E-04 
      7382    72.344  5.20E+01       143            2.35E-04 
      7383    72.352  1.43E+02       146            2.30E-04 
      7384    72.359  8.40E+01       149            2.33E-04 
      7385    72.367  1.70E+02       153            2.28E-04 
      7386    72.375  8.30E+01       158            2.33E-04 
      7387    72.383  5.10E+01       164            2.35E-04 
      7388    72.390  1.42E+02       171            2.30E-04 
      7389    72.398  1.13E+02       180            2.31E-04 
      7390    72.406  1.75E+02       189            2.28E-04 
      7391    72.414  1.42E+02       199            2.30E-04 
      7392    72.421  5.70E+01       211            2.34E-04 
      7393    72.429  2.00E+02       225            2.27E-04 
      7394    72.437  1.37E+02       239            2.30E-04 
      7395    72.445  1.44E+02       254            2.30E-04 
      7396    72.452  1.96E+02       269            2.27E-04 
      7397    72.460  3.01E+02       284            2.22E-04 
      7398    72.468  2.80E+02       299            2.23E-04 
      7399    72.476  2.59E+02       312            2.24E-04 
      7400    72.484  2.63E+02       324            2.24E-04 
      7401    72.491  1.88E+02       333            2.27E-04 
      7402    72.499  3.21E+02       340            2.21E-04 
      7403    72.507  2.86E+02       343            2.22E-04 
      7404    72.515  3.64E+02       342            2.19E-04 
      7405    72.522  3.25E+02       339            2.21E-04 
      7406    72.530  2.85E+02       332            2.22E-04 
      7407    72.538  3.51E+02       323            2.19E-04 
      7408    72.546  1.82E+02       313            2.28E-04 
      7409    72.553  1.73E+02       301            2.28E-04 
      7410    72.561  2.96E+02       290            2.22E-04 
      7411    72.569  2.73E+02       278            2.23E-04 
      7412    72.577  2.91E+02       267            2.22E-04 
      7413    72.585  3.54E+02       257            2.19E-04 
      7414    72.592  2.08E+02       248            2.26E-04 
      7415    72.600  2.90E+02       240            2.22E-04 
      7416    72.608  2.65E+02       234            2.23E-04 
      7417    72.616  2.20E+02       228            2.26E-04 
      7418    72.623  2.67E+02       223            2.23E-04 
      7419    72.631  2.58E+02       220            2.24E-04 
      7420    72.639  2.98E+02       216            2.22E-04 
      7421    72.647  2.54E+02       213            2.24E-04 
      7422    72.654  1.92E+02       209            2.27E-04 
      7423    72.662  3.49E+02       206            2.19E-04 
      7424    72.670  1.72E+02       202            2.28E-04 
      7425    72.678  3.24E+02       197            2.21E-04 
      7426    72.686  2.81E+02       192            2.23E-04 
      7427    72.693  1.72E+02       187            2.28E-04 
      7428    72.701  2.23E+02       182            2.26E-04 
      7429    72.709  1.57E+02       177            2.29E-04 
      7430    72.717  2.00E+02       172            2.27E-04 
      7431    72.724  2.01E+02       167            2.27E-04 
      7432    72.732  2.88E+02       162            2.22E-04 
      7433    72.740  2.11E+02       158            2.26E-04 
      7434    72.748  1.19E+02       154            2.31E-04 
      7435    72.755  5.10E+01       150            2.35E-04 
      7436    72.763  2.68E+02       147            2.23E-04 
      7437    72.771  2.83E+02       144            2.23E-04 
      7438    72.779  1.89E+02       142            2.27E-04 
      7439    72.786  1.84E+02       140            2.28E-04 
      7440    72.794  1.79E+02       138            2.28E-04 
      7441    72.802  1.64E+02       137            2.29E-04 
      7442    72.810  1.66E+02       136            2.29E-04 
      7443    72.818  2.02E+02       135            2.27E-04 
      7444    72.825  1.06E+02       134            2.32E-04 
      7445    72.833  4.40E+01       133            2.35E-04 
      7446    72.841  1.78E+02       133            2.28E-04 
      7447    72.849  1.36E+02       132            2.30E-04 
      7448    72.856  4.70E+01       132            2.35E-04 
      7449    72.864  2.34E+02       132            2.25E-04 
      7450    72.872  9.80E+01       131            2.32E-04 
      7451    72.880  2.75E+02       131            2.23E-04 
      7452    72.887  1.41E+02       131            2.30E-04 
      7453    72.895  2.08E+02       131            2.26E-04 
      7454    72.903  1.44E+02       130            2.30E-04 
      7455    72.911  2.57E+02       130            2.24E-04 
      7456    72.919  2.01E+02       130            2.27E-04 
      7457    72.926  1.33E+02       130            2.30E-04 
      7458    72.934  2.22E+02       130            2.26E-04 
      7459    72.942  1.25E+02       130            2.31E-04 
      7460    72.950  1.51E+02       130            2.29E-04 
      7461    72.957  1.18E+02       130            2.31E-04 
      7462    72.965  1.97E+02       130            2.27E-04 
      7463    72.973  1.34E+02       129            2.30E-04 
      7464    72.981  1.15E+02       129            2.31E-04 
      7465    72.988  1.51E+02       129            2.29E-04 
      7466    72.996  1.87E+02       129            2.27E-04 
      7467    73.004  1.12E+02       129            2.31E-04 
      7468    73.012  1.75E+02       129            2.28E-04 
      7469    73.019  9.60E+01       129            2.32E-04 
      7470    73.027  2.95E+02       132            2.22E-04 
      7471    73.035 -2.60E+01       131            2.39E-04 
      7472    73.043  9.70E+01       131            2.32E-04 
      7473    73.051  1.46E+02       131            2.30E-04 
      7474    73.058  1.57E+02       131            2.29E-04 
      7475    73.066  5.20E+01       131            2.35E-04 
      7476    73.074  2.40E+02       131            2.25E-04 
      7477    73.082  1.44E+02       131            2.30E-04 
      7478    73.089  1.96E+02       131            2.27E-04 
      7479    73.097  2.08E+02       131            2.26E-04 
      7480    73.105  4.00E+01       131            2.35E-04 
      7481    73.113  1.14E+02       131            2.31E-04 
      7482    73.120 -1.80E+01       131            2.39E-04 
      7483    73.128  1.01E+02       131            2.32E-04 
      7484    73.136  2.51E+02       131            2.24E-04 
      7485    73.144  1.85E+02       131            2.28E-04 
      7486    73.152  2.60E+01       131            2.36E-04 
      7487    73.159  8.60E+01       131            2.33E-04 
      7488    73.167  1.29E+02       131            2.31E-04 
      7489    73.175  7.70E+01       131            2.33E-04 
      7490    73.183  4.50E+01       131            2.35E-04 
      7491    73.190 -3.00E+01       131            2.39E-04 
      7492    73.198  9.90E+01       131            2.32E-04 
      7493    73.206  1.03E+02       132            2.32E-04 
      7494    73.214  6.60E+01       132            2.34E-04 
      7495    73.221  2.00E+02       132            2.27E-04 
      7496    73.229  1.33E+02       132            2.30E-04 
      7497    73.237  9.20E+01       132            2.33E-04 
      7498    73.245  6.10E+01       132            2.34E-04 
      7499    73.253  8.30E+01       132            2.33E-04 
      7500    73.260  1.57E+02       132            2.29E-04 
      7501    73.268  1.50E+02       132            2.29E-04 
      7502    73.276  6.10E+01       132            2.34E-04 
      7503    73.284  1.15E+02       132            2.31E-04 
      7504    73.291  4.00E+01       132            2.35E-04 
      7505    73.299  1.33E+02       132            2.30E-04 
      7506    73.307  8.20E+01       132            2.33E-04 
      7507    73.315  8.80E+01       132            2.33E-04 
      7508    73.322  1.71E+02       132            2.28E-04 
      7509    73.330  6.40E+01       132            2.34E-04 
      7510    73.338  3.40E+01       132            2.36E-04 
      7511    73.346  1.21E+02       132            2.31E-04 
      7512    73.353  5.60E+01       132            2.35E-04 
      7513    73.361 -4.80E+01       132            2.40E-04 
      7514    73.369  8.40E+01       132            2.33E-04 
      7515    73.377  2.27E+02       132            2.25E-04 
      7516    73.385  1.56E+02       132            2.29E-04 
      7517    73.392  1.33E+02       133            2.30E-04 
      7518    73.400 -2.60E+01       133            2.39E-04 
      7519    73.408  3.00E+00       133            2.37E-04 
      7520    73.416  1.40E+02       133            2.30E-04 
      7521    73.423  8.80E+01       133            2.33E-04 
      7522    73.431  1.19E+02       133            2.31E-04 
      7523    73.439  7.70E+01       133            2.33E-04 
      7524    73.447  2.36E+02       133            2.25E-04 
      7525    73.454  1.30E+02       133            2.30E-04 
      7526    73.462  1.11E+02       133            2.31E-04 
      7527    73.470  9.40E+01       133            2.32E-04 
      7528    73.478  4.80E+01       133            2.35E-04 
      7529    73.486  9.90E+01       133            2.32E-04 
      7530    73.493  2.70E+01       134            2.36E-04 
      7531    73.501  1.14E+02       134            2.31E-04 
      7532    73.509  4.00E+00       134            2.37E-04 
      7533    73.517  5.80E+01       134            2.34E-04 
      7534    73.524  5.20E+01       134            2.34E-04 
      7535    73.532  5.70E+01       134            2.34E-04 
      7536    73.540  4.70E+01       134            2.35E-04 
      7537    73.548  6.30E+01       134            2.34E-04 
      7538    73.555  1.95E+02       134            2.27E-04 
      7539    73.563  5.00E+00       135            2.37E-04 
      7540    73.571  7.40E+01       135            2.33E-04 
      7541    73.579  1.26E+02       135            2.30E-04 
      7542    73.586  1.52E+02       135            2.29E-04 
      7543    73.594 -3.90E+01       135            2.39E-04 
      7544    73.602  1.59E+02       135            2.28E-04 
      7545    73.610  9.90E+01       135            2.32E-04 
      7546    73.618  3.40E+01       135            2.35E-04 
      7547    73.625  8.70E+01       136            2.32E-04 
      7548    73.633  6.10E+01       136            2.33E-04 
      7549    73.641  4.90E+01       136            2.34E-04 
      7550    73.649  1.23E+02       136            2.30E-04 
      7551    73.656  2.12E+02       136            2.25E-04 
      7552    73.664  1.06E+02       136            2.31E-04 
      7553    73.672  1.13E+02       137            2.31E-04 
      7554    73.680  1.32E+02       137            2.30E-04 
      7555    73.687  8.00E+01       137            2.32E-04 
      7556    73.695  1.20E+01       137            2.36E-04 
      7557    73.703  7.60E+01       138            2.32E-04 
      7558    73.711  1.06E+02       138            2.31E-04 
      7559    73.719  9.90E+01       138            2.31E-04 
      7560    73.726  1.70E+02       138            2.27E-04 
      7561    73.734  3.40E+01       138            2.35E-04 
      7562    73.742  7.80E+01       139            2.32E-04 
      7563    73.750  1.07E+02       139            2.31E-04 
      7564    73.757 -6.00E+00       139            2.37E-04 
      7565    73.765  1.82E+02       140            2.27E-04 
      7566    73.773  6.00E+01       140            2.33E-04 
      7567    73.781  1.80E+02       140            2.27E-04 
      7568    73.788  1.51E+02       141            2.28E-04 
      7569    73.796  1.58E+02       141            2.28E-04 
      7570    73.804  2.01E+02       141            2.26E-04 
      7571    73.812  2.10E+01       142            2.35E-04 
      7572    73.819  2.22E+02       142            2.24E-04 
      7573    73.827  5.30E+01       142            2.33E-04 
      7574    73.835  2.10E+01       143            2.35E-04 
      7575    73.843  2.33E+02       143            2.24E-04 
      7576    73.851  1.69E+02       144            2.27E-04 
      7577    73.858  1.79E+02       145            2.27E-04 
      7578    73.866  2.13E+02       145            2.25E-04 
      7579    73.874  1.52E+02       146            2.28E-04 
      7580    73.882 -3.60E+01       147            2.38E-04 
      7581    73.889  1.50E+02       147            2.28E-04 
      7582    73.897  1.76E+02       148            2.27E-04 
      7583    73.905  1.52E+02       149            2.28E-04 
      7584    73.913  1.72E+02       150            2.27E-04 
      7585    73.920  1.10E+02       151            2.30E-04 
      7586    73.928  7.70E+01       152            2.32E-04 
      7587    73.936  2.31E+02       153            2.24E-04 
      7588    73.944  1.94E+02       155            2.26E-04 
      7589    73.952  2.10E+02       156            2.25E-04 
      7590    73.959  1.50E+02       158            2.28E-04 
      7591    73.967  1.55E+02       160            2.27E-04 
      7592    73.975  1.85E+02       161            2.26E-04 
      7593    73.983  1.41E+02       163            2.28E-04 
      7594    73.990  5.90E+01       165            2.33E-04 
      7595    73.998  1.91E+02       167            2.26E-04 
      7596    74.006  1.71E+02       169            2.27E-04 
      7597    74.014  1.19E+02       171            2.29E-04 
      7598    74.021  1.47E+02       173            2.28E-04 
      7599    74.029  1.39E+02       175            2.28E-04 
      7600    74.037  1.93E+02       177            2.25E-04 
      7601    74.045  6.70E+01       179            2.32E-04 
      7602    74.052  1.31E+02       181            2.28E-04 
      7603    74.060  2.45E+02       183            2.23E-04 
      7604    74.068  1.65E+02       185            2.27E-04 
      7605    74.076  2.66E+02       187            2.22E-04 
      7606    74.084  9.10E+01       189            2.30E-04 
      7607    74.091  2.27E+02       191            2.23E-04 
      7608    74.099  1.99E+02       193            2.25E-04 
      7609    74.107  7.50E+01       195            2.31E-04 
      7610    74.115  1.29E+02       197            2.28E-04 
      7611    74.122  2.26E+02       199            2.23E-04 
      7612    74.130  1.46E+02       202            2.27E-04 
      7613    74.138  1.54E+02       204            2.27E-04 
      7614    74.146  1.39E+02       207            2.28E-04 
      7615    74.153  1.91E+02       210            2.25E-04 
      7616    74.161  2.00E+02       214            2.25E-04 
      7617    74.169  1.61E+02       219            2.27E-04 
      7618    74.177  1.76E+02       224            2.26E-04 
      7619    74.185  2.00E+02       231            2.25E-04 
      7620    74.192  2.23E+02       239            2.23E-04 
      7621    74.200  2.24E+02       249            2.23E-04 
      7622    74.208  1.78E+02       261            2.26E-04 
      7623    74.216  3.52E+02       277            2.17E-04 
      7624    74.223  2.36E+02       296            2.23E-04 
      7625    74.231  2.77E+02       321            2.21E-04 
      7626    74.239  3.94E+02       352            2.15E-04 
      7627    74.247  4.72E+02       390            2.11E-04 
      7628    74.254  2.82E+02       437            2.20E-04 
      7629    74.262  3.30E+02       495            2.18E-04 
      7630    74.270  4.32E+02       566            2.13E-04 
      7631    74.278  6.08E+02       650            2.05E-04 
      7632    74.286  6.95E+02       751            2.02E-04 
      7633    74.293  5.86E+02       867            2.06E-04 
      7634    74.301  7.50E+02  1.00E+03            2.00E-04 
      7635    74.309  9.37E+02  1.15E+03            1.92E-04 
      7636    74.317  1.04E+03  1.32E+03            1.88E-04 
      7637    74.324  1.25E+03  1.51E+03            1.81E-04 
      7638    74.332  1.45E+03  1.71E+03            1.75E-04 
      7639    74.340  1.64E+03  1.91E+03            1.69E-04 
      7640    74.348  1.81E+03  2.13E+03            1.65E-04 
      7641    74.355  2.06E+03  2.34E+03            1.58E-04 
      7642    74.363  2.20E+03  2.55E+03            1.55E-04 
      7643    74.371  2.33E+03  2.74E+03            1.52E-04 
      7644    74.379  2.54E+03  2.91E+03            1.47E-04 
      7645    74.386  2.66E+03  3.05E+03            1.44E-04 
      7646    74.394  2.74E+03  3.14E+03            1.43E-04 
      7647    74.402  2.83E+03  3.19E+03            1.41E-04 
      7648    74.410  3.06E+03  3.19E+03            1.36E-04 
      7649    74.418  2.98E+03  3.14E+03            1.38E-04 
      7650    74.425  2.85E+03  3.05E+03            1.40E-04 
      7651    74.433  2.64E+03  2.91E+03            1.45E-04 
      7652    74.441  2.61E+03  2.74E+03            1.45E-04 
      7653    74.449  2.30E+03  2.55E+03            1.52E-04 
      7654    74.456  2.10E+03  2.34E+03            1.57E-04 
      7655    74.464  1.97E+03  2.13E+03            1.60E-04 
      7656    74.472  1.63E+03  1.91E+03            1.70E-04 
      7657    74.480  1.58E+03  1.71E+03            1.71E-04 
      7658    74.487  1.33E+03  1.51E+03            1.79E-04 
      7659    74.495  1.32E+03  1.32E+03            1.79E-04 
      7660    74.503  1.02E+03  1.15E+03            1.89E-04 
      7661    74.511  9.52E+02  1.00E+03            1.91E-04 
      7662    74.519  7.84E+02       866            1.98E-04 
      7663    74.526  6.86E+02       749            2.02E-04 
      7664    74.534  5.44E+02       649            2.08E-04 
      7665    74.542  5.07E+02       564            2.09E-04 
      7666    74.550  4.82E+02       493            2.10E-04 
      7667    74.557  4.31E+02       435            2.12E-04 
      7668    74.565  2.82E+02       387            2.19E-04 
      7669    74.573  2.56E+02       349            2.21E-04 
      7670    74.581  3.18E+02       318            2.18E-04 
      7671    74.588  2.36E+02       292            2.22E-04 
      7672    74.596  3.38E+02       272            2.17E-04 
      7673    74.604  3.08E+02       256            2.18E-04 
      7674    74.612  2.59E+02       243            2.20E-04 
      7675    74.619  2.75E+02       232            2.20E-04 
      7676    74.627  2.00E+02       224            2.23E-04 
      7677    74.635  3.02E+02       216            2.18E-04 
      7678    74.643  2.13E+02       210            2.23E-04 
      7679    74.651  1.48E+02       204            2.26E-04 
      7680    74.658  2.79E+02       200            2.19E-04 
      7681    74.666  2.94E+02       195            2.19E-04 
      7682    74.674  5.30E+01       192            2.31E-04 
      7683    74.682  2.07E+02       188            2.23E-04 
      7684    74.689  1.92E+02       185            2.23E-04 
      7685    74.697  1.48E+02       182            2.26E-04 
      7686    74.705  1.20E+02       179            2.27E-04 
      7687    74.713  1.75E+02       177            2.24E-04 
      7688    74.720  1.84E+02       175            2.24E-04 
      7689    74.728  2.22E+02       172            2.22E-04 
      7690    74.736  1.49E+02       170            2.25E-04 
      7691    74.744  2.70E+01       168            2.32E-04 
      7692    74.752  1.72E+02       167            2.24E-04 
      7693    74.759  2.10E+02       165            2.22E-04 
      7694    74.767  1.72E+02       164            2.24E-04 
      7695    74.775  2.20E+01       162            2.32E-04 
      7696    74.783  2.75E+02       161            2.19E-04 
      7697    74.790  1.38E+02       159            2.26E-04 
      7698    74.798  1.47E+02       158            2.25E-04 
      7699    74.806  2.23E+02       157            2.22E-04 
      7700    74.814  1.55E+02       156            2.25E-04 
      7701    74.821  6.60E+01       155            2.30E-04 
      7702    74.829  1.12E+02       154            2.27E-04 
      7703    74.837  2.83E+02       153            2.19E-04 
      7704    74.845  1.85E+02       152            2.23E-04 
      7705    74.853  2.07E+02       151            2.22E-04 
      7706    74.860  2.11E+02       150            2.22E-04 
      7707    74.868  3.61E+02       150            2.15E-04 
      7708    74.876  1.71E+02       149            2.24E-04 
      7709    74.884  1.26E+02       148            2.26E-04 
      7710    74.891  1.34E+02       148            2.26E-04 
      7711    74.899  2.28E+02       147            2.21E-04 
      7712    74.907  2.25E+02       146            2.21E-04 
      7713    74.915  1.82E+02       146            2.23E-04 
      7714    74.922  1.34E+02       145            2.26E-04 
      7715    74.930  1.59E+02       145            2.24E-04 
      7716    74.938  9.70E+01       144            2.28E-04 
      7717    74.946  9.60E+01       144            2.28E-04 
      7718    74.953  7.10E+01       143            2.29E-04 
      7719    74.961  1.09E+02       143            2.27E-04 
      7720    74.969  2.03E+02       142            2.22E-04 
      7721    74.977  8.10E+01       142            2.28E-04 
      7722    74.985  9.60E+01       141            2.27E-04 
      7723    74.992  2.79E+02       141            2.18E-04 
      7724    75.000  2.28E+02       141            2.21E-04 
      7725    75.008  2.58E+02       140            2.19E-04 
      7726    75.016  7.60E+01       140            2.28E-04 
      7727    75.023  1.26E+02       140            2.26E-04 
      7728    75.031  1.41E+02       139            2.25E-04 
      7729    75.039  1.85E+02       139            2.23E-04 
      7730    75.047  1.40E+02       139            2.25E-04 
      7731    75.054  1.56E+02       139            2.24E-04 
      7732    75.062  9.10E+01       138            2.27E-04 
      7733    75.070  1.47E+02       138            2.25E-04 
      7734    75.078  7.70E+01       138            2.28E-04 
      7735    75.086  8.40E+01       137            2.28E-04 
      7736    75.093  1.77E+02       137            2.23E-04 
      7737    75.101  1.93E+02       137            2.22E-04 
      7738    75.109  1.80E+02       137            2.23E-04 
      7739    75.117  1.67E+02       137            2.23E-04 
      7740    75.124  1.27E+02       136            2.25E-04 
      7741    75.132  9.60E+01       136            2.27E-04 
      7742    75.140  1.31E+02       136            2.25E-04 
      7743    75.148  1.26E+02       136            2.25E-04 
      7744    75.155  1.59E+02       136            2.24E-04 
      7745    75.163  1.97E+02       135            2.22E-04 
      7746    75.171 -6.90E+01       135            2.36E-04 
      7747    75.179  2.24E+02       135            2.20E-04 
      7748    75.186  3.00E+02       135            2.17E-04 
      7749    75.194  1.91E+02       135            2.22E-04 
      7750    75.202  1.07E+02       135            2.26E-04 
      7751    75.210  8.90E+01       134            2.27E-04 
      7752    75.218  2.80E+02       134            2.18E-04 
      7753    75.225  1.18E+02       134            2.26E-04 
      7754    75.233  2.10E+02       134            2.21E-04 
      7755    75.241  2.01E+02       134            2.21E-04 
      7756    75.249  1.29E+02       134            2.25E-04 
      7757    75.256  2.51E+02       134            2.19E-04 
      7758    75.264  1.09E+02       133            2.26E-04 
      7759    75.272  1.29E+02       133            2.25E-04 
      7760    75.280  1.46E+02       133            2.24E-04 
      7761    75.287  2.24E+02       133            2.20E-04 
      7762    75.295  2.49E+02       133            2.19E-04 
      7763    75.303  1.57E+02       133            2.23E-04 
      7764    75.311  1.67E+02       133            2.23E-04 
      7765    75.319  4.50E+01       133            2.29E-04 
      7766    75.326  2.62E+02       133            2.18E-04 
      7767    75.334  5.50E+01       132            2.29E-04 
      7768    75.342  1.54E+02       132            2.23E-04 
      7769    75.350  1.12E+02       132            2.26E-04 
      7770    75.357  1.97E+02       132            2.21E-04 
      7771    75.365  2.78E+02       132            2.17E-04 
      7772    75.373  2.00E+02       132            2.21E-04 
      7773    75.381  1.49E+02       132            2.24E-04 
      7774    75.388  1.79E+02       132            2.22E-04 
      7775    75.396  1.42E+02       132            2.24E-04 
      7776    75.404  1.05E+02       132            2.26E-04 
      7777    75.412  2.19E+02       132            2.20E-04 
      7778    75.419  1.78E+02       131            2.22E-04 
      7779    75.427  1.86E+02       131            2.22E-04 
      7780    75.435  2.33E+02       131            2.19E-04 
      7781    75.443  3.10E+02       131            2.16E-04 
      7782    75.451  1.76E+02       131            2.22E-04 
      7783    75.458  2.59E+02       131            2.18E-04 
      7784    75.466  2.04E+02       131            2.21E-04 
      7785    75.474  2.47E+02       131            2.19E-04 
      7786    75.482  2.60E+02       131            2.18E-04 
      7787    75.489  2.82E+02       131            2.17E-04 
      7788    75.497  3.29E+02       131            2.15E-04 
      7789    75.505  2.07E+02       131            2.20E-04 
      7790    75.513  2.57E+02       131            2.18E-04 
      7791    75.520  2.64E+02       131            2.18E-04 
      7792    75.528  2.18E+02       130            2.20E-04 
      7793    75.536  3.64E+02       130            2.13E-04 
      7794    75.544  3.00E+02       130            2.16E-04 
      7795    75.552  9.10E+01       130            2.26E-04 
      7796    75.559  2.35E+02       130            2.19E-04 
      7797    75.567  2.02E+02       130            2.20E-04 
      7798    75.575  1.50E+02       130            2.23E-04 
      7799    75.583  1.86E+02       130            2.21E-04 
      7800    75.590  1.93E+02       130            2.21E-04 
      7801    75.598  8.60E+01       130            2.26E-04 
      7802    75.606  2.25E+02       130            2.19E-04 
      7803    75.614  1.90E+02       130            2.21E-04 
      7804    75.621  2.65E+02       130            2.17E-04 
      7805    75.629  2.16E+02       130            2.20E-04 
      7806    75.637  3.32E+02       130            2.14E-04 
      7807    75.645  1.81E+02       130            2.21E-04 
      7808    75.653  1.60E+02       130            2.22E-04 
      7809    75.660  2.31E+02       130            2.19E-04 
      7810    75.668  1.81E+02       130            2.21E-04 
      7811    75.676  2.36E+02       130            2.18E-04 
      7812    75.684  1.73E+02       129            2.22E-04 
      7813    75.691  1.90E+02       129            2.21E-04 
      7814    75.699  2.44E+02       129            2.18E-04 
      7815    75.707  2.25E+02       129            2.19E-04 
      7816    75.715  1.86E+02       129            2.21E-04 
      7817    75.722  1.85E+02       129            2.21E-04 
      7818    75.730  5.20E+01       129            2.27E-04 
      7819    75.738  9.40E+01       129            2.25E-04 
      7820    75.746  2.29E+02       129            2.19E-04 
      7821    75.753  7.70E+01       129            2.26E-04 
      7822    75.761  1.77E+02       129            2.21E-04 
      7823    75.769  1.54E+02       129            2.22E-04 
      7824    75.777  1.62E+02       129            2.22E-04 
      7825    75.785  8.90E+01       126            2.25E-04 
      7826    75.792  2.63E+02       126            2.17E-04 
      7827    75.800  2.05E+02       126            2.20E-04 
      7828    75.808  1.62E+02       126            2.22E-04 
      7829    75.816  5.80E+01       126            2.27E-04 
      7830    75.823  2.65E+02       126            2.17E-04 
      7831    75.831  1.23E+02       126            2.24E-04 
      7832    75.839  2.29E+02       126            2.18E-04 
      7833    75.847  1.68E+02       126            2.21E-04 
      7834    75.854  2.42E+02       126            2.18E-04 
      7835    75.862  2.23E+02       126            2.19E-04 
      7836    75.870  1.58E+02       126            2.22E-04 
      7837    75.878  1.26E+02       126            2.23E-04 
      7838    75.886  1.50E+02       126            2.22E-04 
      7839    75.893  2.98E+02       126            2.15E-04 
      7840    75.901  7.90E+01       126            2.26E-04 
      7841    75.909  2.00E+01       126            2.29E-04 
      7842    75.917  2.90E+02       126            2.15E-04 
      7843    75.924  1.58E+02       126            2.22E-04 
      7844    75.932  1.51E+02       126            2.22E-04 
      7845    75.940  1.83E+02       126            2.20E-04 
      7846    75.948  1.47E+02       126            2.22E-04 
      7847    75.955  1.81E+02       126            2.20E-04 
      7848    75.963  1.93E+02       126            2.20E-04 
      7849    75.971  6.50E+01       126            2.26E-04 
      7850    75.979  1.99E+02       126            2.19E-04 
      7851    75.986  2.27E+02       126            2.18E-04 
      7852    75.994  4.10E+01       126            2.27E-04 
      7853    76.002  7.00E+01       126            2.26E-04 
      7854    76.010  8.20E+01       126            2.25E-04 
      7855    76.018  1.32E+02       126            2.23E-04 
      7856    76.025  1.12E+02       126            2.24E-04 
      7857    76.033  1.18E+02       126            2.23E-04 
      7858    76.041  1.18E+02       126            2.23E-04 
      7859    76.049  8.80E+01       126            2.25E-04 
      7860    76.056  1.62E+02       126            2.21E-04 
      7861    76.064  9.70E+01       126            2.24E-04 
      7862    76.072  1.12E+02       126            2.23E-04 
      7863    76.080  7.60E+01       126            2.25E-04 
      7864    76.087 -2.80E+01       126            2.31E-04 
      7865    76.095  1.10E+01       126            2.29E-04 
      7866    76.103  9.20E+01       126            2.24E-04 
      7867    76.111  1.56E+02       126            2.21E-04 
      7868    76.119  4.40E+01       126            2.27E-04 
      7869    76.126  1.83E+02       126            2.20E-04 
      7870    76.134  1.41E+02       126            2.22E-04 
      7871    76.142  2.21E+02       126            2.18E-04 
      7872    76.150  2.20E+01       126            2.28E-04 
      7873    76.157 -2.70E+01       126            2.30E-04 
      7874    76.165  1.10E+02       126            2.23E-04 
      7875    76.173 -3.00E+00       126            2.29E-04 
      7876    76.181 -2.10E+01       126            2.30E-04 
      7877    76.188  1.30E+02       126            2.22E-04 
      7878    76.196  1.15E+02       126            2.23E-04 
      7879    76.204  6.00E+01       126            2.26E-04 
      7880    76.212  2.73E+02       126            2.15E-04 
      7881    76.219  8.80E+01       126            2.24E-04 
      7882    76.227  1.33E+02       126            2.22E-04 
      7883    76.235  1.29E+02       126            2.22E-04 
      7884    76.243  3.20E+01       126            2.27E-04 
      7885    76.251  1.34E+02       128            2.22E-04 
      7886    76.258 -4.00E+00       128            2.29E-04 
      7887    76.266  1.23E+02       128            2.23E-04 
      7888    76.274  2.24E+02       129            2.18E-04 
      7889    76.282  1.12E+02       129            2.23E-04 
      7890    76.289  1.63E+02       129            2.21E-04 
      7891    76.297  9.80E+01       129            2.24E-04 
      7892    76.305  1.01E+02       129            2.24E-04 
      7893    76.313  6.50E+01       129            2.26E-04 
      7894    76.320 -6.60E+01       130            2.33E-04 
      7895    76.328  1.62E+02       130            2.21E-04 
      7896    76.336  2.21E+02       131            2.18E-04 
      7897    76.344  3.00E+00       131            2.29E-04 
      7898    76.352  6.80E+01       132            2.26E-04 
      7899    76.359  1.84E+02       133            2.20E-04 
      7900    76.367  7.80E+01       134            2.26E-04 
      7901    76.375  2.06E+02       135            2.19E-04 
      7902    76.383  9.10E+01       137            2.25E-04 
      7903    76.390  1.39E+02       138            2.23E-04 
      7904    76.398  1.09E+02       141            2.24E-04 
      7905    76.406  4.50E+01       143            2.27E-04 
      7906    76.414  1.93E+02       147            2.20E-04 
      7907    76.421  1.58E+02       151            2.22E-04 
      7908    76.429  4.00E+01       155            2.28E-04 
      7909    76.437  1.08E+02       161            2.24E-04 
      7910    76.445  1.12E+02       167            2.24E-04 
      7911    76.453  1.92E+02       174            2.20E-04 
      7912    76.460  6.60E+01       183            2.27E-04 
      7913    76.468  1.63E+02       192            2.22E-04 
      7914    76.476  1.57E+02       202            2.22E-04 
      7915    76.484  4.30E+01       214            2.28E-04 
      7916    76.491  1.91E+02       227            2.21E-04 
      7917    76.499  2.89E+02       241            2.16E-04 
      7918    76.507  2.20E+02       256            2.19E-04 
      7919    76.515  2.35E+02       272            2.18E-04 
      7920    76.522  3.04E+02       289            2.15E-04 
      7921    76.530  2.62E+02       306            2.17E-04 
      7922    76.538  2.83E+02       324            2.16E-04 
      7923    76.546  3.93E+02       343            2.11E-04 
      7924    76.553  3.53E+02       361            2.13E-04 
      7925    76.561  4.41E+02       379            2.09E-04 
      7926    76.569  5.65E+02       396            2.04E-04 
      7927    76.577  4.14E+02       413            2.11E-04 
      7928    76.585  4.38E+02       428            2.09E-04 
      7929    76.592  5.07E+02       442            2.07E-04 
      7930    76.600  5.19E+02       453            2.06E-04 
      7931    76.608  5.10E+02       463            2.06E-04 
      7932    76.616  5.41E+02       472            2.05E-04 
      7933    76.623  4.90E+02       477            2.07E-04 
      7934    76.631  4.14E+02       478            2.11E-04 
      7935    76.639  5.96E+02       477            2.03E-04 
      7936    76.647  6.47E+02       473            2.01E-04 
      7937    76.654  5.09E+02       466            2.07E-04 
      7938    76.662  4.99E+02       457            2.07E-04 
      7939    76.670  5.40E+02       446            2.05E-04 
      7940    76.678  3.85E+02       433            2.12E-04 
      7941    76.686  3.22E+02       418            2.15E-04 
      7942    76.693  3.34E+02       402            2.15E-04 
      7943    76.701  3.73E+02       385            2.13E-04 
      7944    76.709  3.75E+02       367            2.13E-04 
      7945    76.717  3.36E+02       349            2.15E-04 
      7946    76.724  2.78E+02       331            2.17E-04 
      7947    76.732  3.11E+02       314            2.16E-04 
      7948    76.740  2.52E+02       297            2.19E-04 
      7949    76.748  2.96E+02       281            2.17E-04 
      7950    76.755  2.64E+02       265            2.18E-04 
      7951    76.763  1.64E+02       252            2.23E-04 
      7952    76.771  2.00E+02       239            2.21E-04 
      7953    76.779  2.40E+02       228            2.19E-04 
      7954    76.786  9.60E+01       218            2.27E-04 
      7955    76.794  4.30E+01       210            2.29E-04 
      7956    76.802  1.38E+02       204            2.25E-04 
      7957    76.810  2.43E+02       198            2.19E-04 
      7958    76.818  2.45E+02       195            2.19E-04 
      7959    76.825  2.40E+02       193            2.20E-04 
      7960    76.833  1.70E+02       192            2.23E-04 
      7961    76.841  7.30E+01       193            2.28E-04 
      7962    76.849  1.52E+02       195            2.24E-04 
      7963    76.856  1.26E+02       199            2.25E-04 
      7964    76.864  2.53E+02       203            2.19E-04 
      7965    76.872  8.20E+01       208            2.28E-04 
      7966    76.880  3.26E+02       215            2.16E-04 
      7967    76.887  2.78E+02       222            2.18E-04 
      7968    76.895  2.27E+02       232            2.21E-04 
      7969    76.903  1.60E+02       240            2.24E-04 
      7970    76.911  2.62E+02       249            2.19E-04 
      7971    76.919  1.42E+02       257            2.25E-04 
      7972    76.926  2.25E+02       266            2.21E-04 
      7973    76.934  2.77E+02       274            2.18E-04 
      7974    76.942  2.72E+02       282            2.19E-04 
      7975    76.950  3.23E+02       290            2.16E-04 
      7976    76.957  2.50E+02       296            2.20E-04 
      7977    76.965  3.79E+02       302            2.14E-04 
      7978    76.973  4.47E+02       306            2.11E-04 
      7979    76.981  2.88E+02       309            2.18E-04 
      7980    76.988  3.77E+02       311            2.14E-04 
      7981    76.996  3.98E+02       312            2.13E-04 
      7982    77.004  3.30E+02       311            2.16E-04 
      7983    77.012  3.34E+02       306            2.16E-04 
      7984    77.020  2.30E+02       303            2.21E-04 
      7985    77.027  3.54E+02       298            2.15E-04 
      7986    77.035  4.04E+02       292            2.13E-04 
      7987    77.043  4.02E+02       287            2.13E-04 
      7988    77.051  2.99E+02       280            2.18E-04 
      7989    77.058  2.02E+02       271            2.22E-04 
      7990    77.066  3.33E+02       263            2.16E-04 
      7991    77.074  2.18E+02       254            2.22E-04 
      7992    77.082  1.24E+02       244            2.26E-04 
      7993    77.089  2.25E+02       235            2.21E-04 
      7994    77.097  2.10E+02       226            2.22E-04 
      7995    77.105  2.95E+02       217            2.18E-04 
      7996    77.113  2.40E+02       209            2.21E-04 
      7997    77.120  3.03E+02       201            2.18E-04 
      7998    77.128  1.19E+02       193            2.27E-04 
      7999    77.136  2.32E+02       186            2.21E-04 
      8000    77.144  2.02E+02       180            2.23E-04 
      8001    77.152  1.65E+02       174            2.25E-04 
      8002    77.159  2.56E+02       169            2.20E-04 
      8003    77.167  1.14E+02       164            2.27E-04 
      8004    77.175  1.45E+02       160            2.26E-04 
      8005    77.183  1.26E+02       156            2.27E-04 
      8006    77.190  1.59E+02       153            2.25E-04 
      8007    77.198  1.55E+02       150            2.25E-04 
      8008    77.206  1.39E+02       148            2.26E-04 
      8009    77.214  2.06E+02       146            2.23E-04 
      8010    77.221  2.13E+02       144            2.23E-04 
      8011    77.229  2.02E+02       143            2.23E-04 
      8012    77.237  1.76E+02       142            2.25E-04 
      8013    77.245  1.41E+02       141            2.26E-04 
      8014    77.253  7.60E+01       141            2.30E-04 
      8015    77.260  1.24E+02       140            2.27E-04 
      8016    77.268  8.10E+01       140            2.30E-04 
      8017    77.276  2.06E+02       140            2.23E-04 
      8018    77.284  1.86E+02       139            2.24E-04 
      8019    77.291  2.91E+02       139            2.19E-04 
      8020    77.299  1.90E+02       139            2.24E-04 
      8021    77.307  1.13E+02       139            2.28E-04 
      8022    77.315  3.80E+01       139            2.32E-04 
      8023    77.322  1.31E+02       139            2.27E-04 
      8024    77.330  1.11E+02       139            2.28E-04 
      8025    77.338  1.48E+02       140            2.26E-04 
      8026    77.346  2.14E+02       140            2.23E-04 
      8027    77.353  1.71E+02       140            2.25E-04 
      8028    77.361  1.34E+02       140            2.27E-04 
      8029    77.369  1.21E+02       140            2.28E-04 
      8030    77.377  1.44E+02       139            2.27E-04 
      8031    77.385  1.55E+02       140            2.26E-04 
      8032    77.392  2.21E+02       140            2.23E-04 
      8033    77.400  1.93E+02       140            2.24E-04 
      8034    77.408  1.68E+02       141            2.26E-04 
      8035    77.416  8.10E+01       141            2.30E-04 
      8036    77.423 -2.00E+00       141            2.35E-04 
      8037    77.431  1.22E+02       142            2.28E-04 
      8038    77.439  4.50E+01       142            2.32E-04 
      8039    77.447  1.60E+02       142            2.26E-04 
      8040    77.454  1.88E+02       143            2.25E-04 
      8041    77.462  1.70E+02       143            2.26E-04 
      8042    77.470  2.91E+02       143            2.20E-04 
      8043    77.478  1.67E+02       144            2.26E-04 
      8044    77.486  1.79E+02       144            2.25E-04 
      8045    77.493  1.71E+02       145            2.26E-04 
      8046    77.501  9.90E+01       145            2.30E-04 
      8047    77.509  1.25E+02       146            2.28E-04 
      8048    77.517  2.23E+02       146            2.23E-04 
      8049    77.524  1.63E+02       147            2.26E-04 
      8050    77.532  1.50E+02       147            2.27E-04 
      8051    77.540  4.80E+01       148            2.33E-04 
      8052    77.548  1.45E+02       149            2.27E-04 
      8053    77.555  2.60E+02       149            2.22E-04 
      8054    77.563  1.64E+02       150            2.27E-04 
      8055    77.571  1.81E+02       151            2.26E-04 
      8056    77.579  2.28E+02       151            2.23E-04 
      8057    77.586  1.31E+02       152            2.28E-04 
      8058    77.594  1.78E+02       153            2.26E-04 
      8059    77.602  1.91E+02       154            2.25E-04 
      8060    77.610  1.18E+02       155            2.29E-04 
      8061    77.618  2.02E+02       156            2.25E-04 
      8062    77.625  1.50E+02       157            2.27E-04 
      8063    77.633  2.07E+02       158            2.25E-04 
      8064    77.641  2.09E+02       159            2.25E-04 
      8065    77.649  2.30E+02       160            2.24E-04 
      8066    77.656  3.70E+01       162            2.34E-04 
      8067    77.664  1.36E+02       163            2.28E-04 
      8068    77.672  3.45E+02       164            2.18E-04 
      8069    77.680  9.30E+01       166            2.31E-04 
      8070    77.687  1.09E+02       167            2.30E-04 
      8071    77.695  2.63E+02       169            2.22E-04 
      8072    77.703  1.78E+02       170            2.26E-04 
      8073    77.711  6.70E+01       172            2.32E-04 
      8074    77.719  1.35E+02       174            2.29E-04 
      8075    77.726  1.71E+02       176            2.27E-04 
      8076    77.734  2.56E+02       178            2.23E-04 
      8077    77.742  1.78E+02       181            2.26E-04 
      8078    77.750  2.03E+02       184            2.25E-04 
      8079    77.757  1.73E+02       187            2.27E-04 
      8080    77.765  3.56E+02       190            2.18E-04 
      8081    77.773  2.40E+02       195            2.23E-04 
      8082    77.781  3.37E+02       199            2.19E-04 
      8083    77.788  2.24E+02       205            2.24E-04 
      8084    77.796  1.80E+02       212            2.27E-04 
      8085    77.804  1.96E+02       220            2.26E-04 
      8086    77.812  1.88E+02       230            2.26E-04 
      8087    77.819  2.51E+02       242            2.23E-04 
      8088    77.827  3.38E+02       257            2.19E-04 
      8089    77.835  2.34E+02       274            2.24E-04 
      8090    77.843  2.25E+02       296            2.24E-04 
      8091    77.851  2.91E+02       322            2.21E-04 
      8092    77.858  3.62E+02       352            2.18E-04 
      8093    77.866  3.41E+02       389            2.19E-04 
      8094    77.874  4.77E+02       431            2.13E-04 
      8095    77.882  4.85E+02       480            2.12E-04 
      8096    77.889  5.10E+02       535            2.11E-04 
      8097    77.897  5.33E+02       598            2.10E-04 
      8098    77.905  5.28E+02       667            2.10E-04 
      8099    77.913  7.93E+02       742            1.99E-04 
      8100    77.920  9.08E+02       822            1.95E-04 
      8101    77.928  8.52E+02       907            1.97E-04 
      8102    77.936  1.01E+03       994            1.91E-04 
      8103    77.944  9.33E+02  1.08E+03            1.94E-04 
      8104    77.952  1.21E+03  1.17E+03            1.84E-04 
      8105    77.959  1.20E+03  1.25E+03            1.85E-04 
      8106    77.967  1.31E+03  1.33E+03            1.81E-04 
      8107    77.975  1.45E+03  1.39E+03            1.76E-04 
      8108    77.983  1.44E+03  1.45E+03            1.77E-04 
      8109    77.990  1.44E+03  1.48E+03            1.77E-04 
      8110    77.998  1.47E+03  1.50E+03            1.76E-04 
      8111    78.006  1.53E+03  1.50E+03            1.74E-04 
      8112    78.014  1.47E+03  1.48E+03            1.76E-04 
      8113    78.021  1.39E+03  1.44E+03            1.79E-04 
      8114    78.029  1.40E+03  1.40E+03            1.78E-04 
      8115    78.037  1.51E+03  1.33E+03            1.75E-04 
      8116    78.045  1.18E+03  1.27E+03            1.86E-04 
      8117    78.053  1.29E+03  1.19E+03            1.82E-04 
      8118    78.060  1.15E+03  1.12E+03            1.86E-04 
      8119    78.068  1.01E+03  1.04E+03            1.92E-04 
      8120    78.076  1.02E+03       975            1.91E-04 
      8121    78.084  8.32E+02       914            1.98E-04 
      8122    78.091  7.97E+02       861            2.00E-04 
      8123    78.099  6.56E+02       819            2.06E-04 
      8124    78.107  6.59E+02       790            2.05E-04 
      8125    78.115  6.36E+02       774            2.06E-04 
      8126    78.122  6.33E+02       775            2.07E-04 
      8127    78.130  6.75E+02       792            2.05E-04 
      8128    78.138  6.35E+02       826            2.06E-04 
      8129    78.146  7.89E+02       878            2.00E-04 
      8130    78.153  8.10E+02       949            1.99E-04 
      8131    78.161  8.56E+02  1.04E+03            1.98E-04 
      8132    78.169  1.03E+03  1.15E+03            1.91E-04 
      8133    78.177  1.32E+03  1.27E+03            1.81E-04 
      8134    78.185  1.41E+03  1.41E+03            1.78E-04 
      8135    78.192  1.39E+03  1.57E+03            1.79E-04 
      8136    78.200  1.70E+03  1.74E+03            1.69E-04 
      8137    78.208  1.89E+03  1.92E+03            1.64E-04 
      8138    78.216  2.15E+03  2.10E+03            1.58E-04 
      8139    78.223  2.27E+03  2.28E+03            1.55E-04 
      8140    78.231  2.46E+03  2.46E+03            1.50E-04 
      8141    78.239  2.53E+03  2.63E+03            1.49E-04 
      8142    78.247  2.73E+03  2.78E+03            1.44E-04 
      8143    78.254  2.78E+03  2.92E+03            1.43E-04 
      8144    78.262  2.81E+03  3.02E+03            1.43E-04 
      8145    78.270  2.78E+03  3.10E+03            1.43E-04 
      8146    78.278  2.71E+03  3.14E+03            1.45E-04 
      8147    78.286  2.94E+03  3.15E+03            1.40E-04 
      8148    78.293  2.82E+03  3.14E+03            1.43E-04 
      8149    78.301  2.68E+03  3.10E+03            1.45E-04 
      8150    78.309  2.63E+03  3.04E+03            1.47E-04 
      8151    78.317  2.50E+03  2.98E+03            1.49E-04 
      8152    78.324  2.38E+03  2.91E+03            1.52E-04 
      8153    78.332  2.24E+03  2.84E+03            1.55E-04 
      8154    78.340  2.38E+03  2.78E+03            1.52E-04 
      8155    78.348  2.36E+03  2.73E+03            1.53E-04 
      8156    78.355  2.46E+03  2.70E+03            1.50E-04 
      8157    78.363  2.37E+03  2.67E+03            1.53E-04 
      8158    78.371  2.29E+03  2.66E+03            1.54E-04 
      8159    78.379  2.33E+03  2.66E+03            1.53E-04 
      8160    78.386  2.49E+03  2.66E+03            1.50E-04 
      8161    78.394  2.39E+03  2.67E+03            1.52E-04 
      8162    78.402  2.45E+03  2.67E+03            1.51E-04 
      8163    78.410  2.47E+03  2.66E+03            1.50E-04 
      8164    78.418  2.43E+03  2.64E+03            1.51E-04 
      8165    78.425  2.37E+03  2.60E+03            1.52E-04 
      8166    78.433  2.36E+03  2.54E+03            1.53E-04 
      8167    78.441  2.38E+03  2.46E+03            1.52E-04 
      8168    78.449  2.32E+03  2.36E+03            1.54E-04 
      8169    78.456  2.20E+03  2.24E+03            1.57E-04 
      8170    78.464  2.10E+03  2.10E+03            1.59E-04 
      8171    78.472  2.04E+03  1.96E+03            1.61E-04 
      8172    78.480  1.81E+03  1.81E+03            1.67E-04 
      8173    78.487  1.62E+03  1.65E+03            1.72E-04 
      8174    78.495  1.53E+03  1.50E+03            1.75E-04 
      8175    78.503  1.42E+03  1.36E+03            1.79E-04 
      8176    78.511  1.28E+03  1.22E+03            1.83E-04 
      8177    78.519  1.06E+03  1.09E+03            1.91E-04 
      8178    78.526  9.79E+02       967            1.94E-04 
      8179    78.534  9.94E+02       858            1.93E-04 
      8180    78.542  8.00E+02       760            2.01E-04 
      8181    78.550  7.68E+02       673            2.02E-04 
      8182    78.557  8.49E+02       598            1.99E-04 
      8183    78.565  6.83E+02       533            2.06E-04 
      8184    78.573  5.84E+02       477            2.10E-04 
      8185    78.581  6.65E+02       430            2.07E-04 
      8186    78.588  5.82E+02       391            2.10E-04 
      8187    78.596  6.15E+02       358            2.09E-04 
      8188    78.604  4.00E+02       332            2.19E-04 
      8189    78.612  3.64E+02       310            2.20E-04 
      8190    78.619  3.84E+02       291            2.19E-04 
      8191    78.627  4.48E+02       277            2.17E-04 
      8192    78.635  4.20E+02       265            2.18E-04 
      8193    78.643  4.28E+02       255            2.17E-04 
      8194    78.651  3.70E+02       246            2.20E-04 
      8195    78.658  2.45E+02       239            2.27E-04 
      8196    78.666  4.04E+02       233            2.19E-04 
      8197    78.674  3.33E+02       228            2.22E-04 
      8198    78.682  3.13E+02       224            2.23E-04 
      8199    78.689  3.57E+02       221            2.21E-04 
      8200    78.697  3.62E+02       217            2.21E-04 
      8201    78.705  4.28E+02       215            2.18E-04 
      8202    78.713  3.13E+02       212            2.23E-04 
      8203    78.720  2.91E+02       210            2.24E-04 
      8204    78.728  3.04E+02       208            2.24E-04 
      8205    78.736  1.95E+02       207            2.29E-04 
      8206    78.744  3.23E+02       206            2.23E-04 
      8207    78.752  3.34E+02       205            2.22E-04 
      8208    78.759  2.32E+02       205            2.28E-04 
      8209    78.767  3.17E+02       205            2.23E-04 
      8210    78.775  2.17E+02       206            2.28E-04 
      8211    78.783  2.71E+02       208            2.26E-04 
      8212    78.790  2.69E+02       210            2.26E-04 
      8213    78.798  3.65E+02       214            2.21E-04 
      8214    78.806  2.09E+02       218            2.29E-04 
      8215    78.814  2.12E+02       224            2.29E-04 
      8216    78.821  2.36E+02       232            2.28E-04 
      8217    78.829  3.34E+02       242            2.23E-04 
      8218    78.837  1.85E+02       255            2.30E-04 
      8219    78.845  2.35E+02       271            2.28E-04 
      8220    78.853  2.60E+02       290            2.27E-04 
      8221    78.860  3.66E+02       313            2.21E-04 
      8222    78.868  3.37E+02       339            2.23E-04 
      8223    78.876  2.99E+02       371            2.25E-04 
      8224    78.884  2.27E+02       406            2.28E-04 
      8225    78.891  3.42E+02       447            2.23E-04 
      8226    78.899  4.39E+02       492            2.18E-04 
      8227    78.907  5.13E+02       541            2.14E-04 
      8228    78.915  3.81E+02       594            2.21E-04 
      8229    78.922  6.39E+02       650            2.09E-04 
      8230    78.930  6.66E+02       708            2.08E-04 
      8231    78.938  7.82E+02       767            2.03E-04 
      8232    78.946  6.67E+02       825            2.08E-04 
      8233    78.953  7.01E+02       880            2.06E-04 
      8234    78.961  8.20E+02       932            2.01E-04 
      8235    78.969  9.45E+02       976            1.96E-04 
      8236    78.977  9.41E+02  1.01E+03            1.97E-04 
      8237    78.985  9.09E+02  1.04E+03            1.98E-04 
      8238    78.992  8.21E+02  1.05E+03            2.01E-04 
      8239    79.000  1.05E+03  1.05E+03            1.93E-04 
      8240    79.008  8.75E+02  1.04E+03            1.99E-04 
      8241    79.016  7.91E+02  1.02E+03            2.03E-04 
      8242    79.023  8.28E+02       981            2.01E-04 
      8243    79.031  8.79E+02       937            1.99E-04 
      8244    79.039  8.06E+02       886            2.02E-04 
      8245    79.047  7.21E+02       830            2.06E-04 
      8246    79.054  7.21E+02       771            2.06E-04 
      8247    79.062  6.09E+02       711            2.11E-04 
      8248    79.070  5.72E+02       652            2.12E-04 
      8249    79.078  6.16E+02       594            2.10E-04 
      8250    79.086  5.20E+02       539            2.15E-04 
      8251    79.093  5.51E+02       488            2.13E-04 
      8252    79.101  3.96E+02       441            2.21E-04 
      8253    79.109  5.06E+02       398            2.15E-04 
      8254    79.117  4.35E+02       360            2.19E-04 
      8255    79.124  4.36E+02       326            2.19E-04 
      8256    79.132  4.36E+02       297            2.19E-04 
      8257    79.140  4.17E+02       272            2.20E-04 
      8258    79.148  3.76E+02       251            2.22E-04 
      8259    79.155  3.11E+02       233            2.25E-04 
      8260    79.163  3.89E+02       218            2.21E-04 
      8261    79.171  1.92E+02       206            2.31E-04 
      8262    79.179  2.39E+02       196            2.29E-04 
      8263    79.186  2.72E+02       188            2.27E-04 
      8264    79.194  2.59E+02       181            2.28E-04 
      8265    79.202  3.45E+02       175            2.24E-04 
      8266    79.210  1.72E+02       171            2.33E-04 
      8267    79.218  1.78E+02       167            2.32E-04 
      8268    79.225  2.28E+02       164            2.30E-04 
      8269    79.233  1.03E+02       161            2.36E-04 
      8270    79.241  2.98E+02       159            2.26E-04 
      8271    79.249  1.34E+02       157            2.35E-04 
      8272    79.256  1.69E+02       155            2.33E-04 
      8273    79.264  1.33E+02       154            2.35E-04 
      8274    79.272  1.95E+02       152            2.32E-04 
      8275    79.280  1.70E+02       151            2.33E-04 
      8276    79.287  2.05E+02       150            2.31E-04 
      8277    79.295  1.77E+02       149            2.33E-04 
      8278    79.303  5.40E+01       148            2.40E-04 
      8279    79.311  2.18E+02       147            2.31E-04 
      8280    79.319  2.33E+02       146            2.30E-04 
      8281    79.326  2.02E+02       145            2.31E-04 
      8282    79.334  1.37E+02       145            2.35E-04 
      8283    79.342  2.50E+02       144            2.29E-04 
      8284    79.350  1.50E+02       143            2.34E-04 
      8285    79.357  1.15E+02       143            2.36E-04 
      8286    79.365  1.63E+02       142            2.34E-04 
      8287    79.373  1.38E+02       141            2.35E-04 
      8288    79.381  2.19E+02       140            2.31E-04 
      8289    79.388  1.28E+02       139            2.36E-04 
      8290    79.396  8.80E+01       139            2.38E-04 
      8291    79.404  2.03E+02       138            2.32E-04 
      8292    79.412  9.10E+01       138            2.38E-04 
      8293    79.419  2.73E+02       138            2.28E-04 
      8294    79.427  1.37E+02       137            2.35E-04 
      8295    79.435  1.14E+02       137            2.37E-04 
      8296    79.443  2.05E+02       137            2.32E-04 
      8297    79.451  1.60E+02       137            2.34E-04 
      8298    79.458  7.80E+01       137            2.39E-04 
      8299    79.466  4.30E+01       137            2.41E-04 
      8300    79.474  9.10E+01       136            2.38E-04 
      8301    79.482  2.53E+02       137            2.29E-04 
      8302    79.489  1.28E+02       137            2.36E-04 
      8303    79.497  2.46E+02       137            2.30E-04 
      8304    79.505  1.23E+02       137            2.36E-04 
      8305    79.513  6.10E+01       138            2.40E-04 
      8306    79.520  3.03E+02       139            2.27E-04 
      8307    79.528  1.24E+02       140            2.37E-04 
      8308    79.536  2.32E+02       141            2.31E-04 
      8309    79.544  3.50E+01       142            2.42E-04 
      8310    79.552  1.42E+02       144            2.36E-04 
      8311    79.559  1.94E+02       147            2.33E-04 
      8312    79.567  1.08E+02       150            2.38E-04 
      8313    79.575  7.00E+01       153            2.40E-04 
      8314    79.583  8.70E+01       157            2.39E-04 
      8315    79.590  1.53E+02       161            2.35E-04 
      8316    79.598  1.70E+02       166            2.34E-04 
      8317    79.606  1.64E+02       172            2.35E-04 
      8318    79.614  1.19E+02       178            2.37E-04 
      8319    79.621  1.35E+02       184            2.36E-04 
      8320    79.629  2.05E+02       191            2.33E-04 
      8321    79.637  1.60E+02       198            2.35E-04 
      8322    79.645  2.37E+02       205            2.31E-04 
      8323    79.653  1.27E+02       210            2.37E-04 
      8324    79.660  1.69E+02       216            2.35E-04 
      8325    79.668  2.06E+02       222            2.33E-04 
      8326    79.676  2.04E+02       228            2.33E-04 
      8327    79.684  1.39E+02       232            2.36E-04 
      8328    79.691  1.62E+02       235            2.35E-04 
      8329    79.699  1.47E+02       236            2.36E-04 
      8330    79.707  1.73E+02       236            2.35E-04 
      8331    79.715  1.00E+01       234            2.44E-04 
      8332    79.722  2.71E+02       231            2.29E-04 
      8333    79.730  1.96E+02       226            2.33E-04 
      8334    79.738  9.70E+01       221            2.39E-04 
      8335    79.746  1.84E+02       214            2.34E-04 
      8336    79.753  9.70E+01       208            2.39E-04 
      8337    79.761  2.13E+02       200            2.33E-04 
      8338    79.769  1.58E+02       193            2.36E-04 
      8339    79.777  2.00E+02       186            2.33E-04 
      8340    79.785  9.10E+01       178            2.39E-04 
      8341    79.792  3.11E+02       172            2.28E-04 
      8342    79.800  1.22E+02       166            2.38E-04 
      8343    79.808  2.50E+01       158            2.43E-04 
      8344    79.816  2.19E+02       152            2.32E-04 
      8345    79.823  8.40E+01       148            2.40E-04 
      8346    79.831  1.59E+02       144            2.36E-04 
      8347    79.839  9.40E+01       140            2.40E-04 
      8348    79.847  1.79E+02       137            2.35E-04 
      8349    79.854  1.23E+02       134            2.38E-04 
      8350    79.862  9.20E+01       132            2.40E-04 
      8351    79.870  7.20E+01       130            2.41E-04 
      8352    79.878  1.85E+02       129            2.35E-04 
      8353    79.886  3.50E+01       130            2.43E-04 
      8354    79.893  2.53E+02       129            2.31E-04 
      8355    79.901  3.40E+01       128            2.43E-04 
      8356    79.909  1.40E+02       128            2.37E-04 
      8357    79.917 -3.40E+01       127            2.47E-04 
      8358    79.924  1.43E+02       127            2.37E-04 
      8359    79.932  8.20E+01       127            2.41E-04 
      8360    79.940  1.92E+02       126            2.35E-04 
      8361    79.948  2.34E+02       126            2.32E-04 
      8362    79.955 -9.00E+00       126            2.46E-04 
      8363    79.963  1.51E+02       126            2.37E-04 
      8364    79.971  1.18E+02       126            2.39E-04 
      8365    79.979  1.51E+02       127            2.37E-04 
      8366    79.986  1.82E+02       127            2.36E-04 
      8367    79.994  4.00E+01       127            2.44E-04 
      8368    80.002  1.39E+02       127            2.38E-04 
      8369    80.010  1.26E+02       128            2.39E-04 
      8370    80.018  1.54E+02       128            2.37E-04 
      8371    80.025  1.19E+02       129            2.39E-04 
      8372    80.033  7.90E+01       129            2.42E-04 
      8373    80.041  1.85E+02       130            2.36E-04 
      8374    80.049  1.12E+02       130            2.40E-04 
      8375    80.056  1.98E+02       131            2.35E-04 
      8376    80.064  6.70E+01       132            2.43E-04 
      8377    80.072  1.18E+02       132            2.40E-04 
      8378    80.080  2.20E+01       134            2.46E-04 
      8379    80.087 -7.30E+01       135            2.52E-04 
      8380    80.095  9.20E+01       136            2.42E-04 
      8381    80.103  4.90E+01       136            2.44E-04 
      8382    80.111  1.11E+02       137            2.41E-04 
      8383    80.119  1.37E+02       138            2.39E-04 
      8384    80.126  1.80E+01       139            2.46E-04 
      8385    80.134  1.02E+02       139            2.41E-04 
      8386    80.142  9.70E+01       140            2.42E-04 
      8387    80.150  2.47E+02       140            2.33E-04 
      8388    80.157  4.40E+01       141            2.45E-04 
      8389    80.165  1.42E+02       142            2.39E-04 
      8390    80.173  1.18E+02       142            2.41E-04 
      8391    80.181  7.00E+01       142            2.44E-04 
      8392    80.188  1.29E+02       143            2.40E-04 
      8393    80.196  1.09E+02       143            2.42E-04 
      8394    80.204  2.23E+02       143            2.35E-04 
      8395    80.212  1.22E+02       143            2.41E-04 
      8396    80.219  7.40E+01       144            2.44E-04 
      8397    80.227  9.30E+01       144            2.43E-04 
      8398    80.235  6.00E+01       145            2.45E-04 
      8399    80.243  4.00E+00       146            2.48E-04 
      8400    80.251  8.90E+01       147            2.43E-04 
      8401    80.258  2.21E+02       148            2.36E-04 
      8402    80.266  7.80E+01       149            2.44E-04 
      8403    80.274  1.44E+02       151            2.40E-04 
      8404    80.282 -4.10E+01       153            2.52E-04 
      8405    80.289  2.11E+02       156            2.37E-04 
      8406    80.297  1.52E+02       159            2.40E-04 
      8407    80.305  1.83E+02       162            2.38E-04 
      8408    80.313  1.33E+02       167            2.41E-04 
      8409    80.320  8.40E+01       171            2.44E-04 
      8410    80.328  1.13E+02       175            2.43E-04 
      8411    80.336  9.80E+01       180            2.44E-04 
      8412    80.344  2.05E+02       186            2.38E-04 
      8413    80.352  1.43E+02       191            2.41E-04 
      8414    80.359  1.83E+02       197            2.39E-04 
      8415    80.367  1.36E+02       203            2.42E-04 
      8416    80.375  1.77E+02       208            2.39E-04 
      8417    80.383  1.90E+02       213            2.39E-04 
      8418    80.390  1.97E+02       219            2.38E-04 
      8419    80.398  2.40E+02       225            2.36E-04 
      8420    80.406  3.36E+02       230            2.31E-04 
      8421    80.414  1.78E+02       235            2.40E-04 
      8422    80.421  3.23E+02       239            2.32E-04 
      8423    80.429  2.30E+02       243            2.37E-04 
      8424    80.437  2.78E+02       246            2.34E-04 
      8425    80.445  2.74E+02       248            2.35E-04 
      8426    80.453  3.70E+02       249            2.30E-04 
      8427    80.460  2.73E+02       250            2.35E-04 
      8428    80.468  1.71E+02       249            2.41E-04 
      8429    80.476  2.08E+02       248            2.39E-04 
      8430    80.484  3.31E+02       246            2.32E-04 
      8431    80.491  2.67E+02       243            2.35E-04 
      8432    80.499  2.53E+02       240            2.36E-04 
      8433    80.507  1.98E+02       236            2.40E-04 
      8434    80.515  3.03E+02       231            2.34E-04 
      8435    80.522  2.33E+02       226            2.38E-04 
      8436    80.530  2.34E+02       220            2.38E-04 
      8437    80.538  3.31E+02       214            2.32E-04 
      8438    80.546  2.22E+02       208            2.39E-04 
      8439    80.553  2.13E+02       202            2.39E-04 
      8440    80.561  2.34E+02       196            2.38E-04 
      8441    80.569  2.41E+02       190            2.38E-04 
      8442    80.577  1.58E+02       185            2.43E-04 
      8443    80.585  1.75E+02       179            2.42E-04 
      8444    80.592  1.33E+02       174            2.44E-04 
      8445    80.600  1.56E+02       169            2.43E-04 
      8446    80.608  2.13E+02       164            2.40E-04 
      8447    80.616  1.40E+02       160            2.44E-04 
      8448    80.623  1.35E+02       156            2.44E-04 
      8449    80.631  1.63E+02       152            2.43E-04 
      8450    80.639  1.43E+02       149            2.44E-04 
      8451    80.647  2.10E+02       146            2.40E-04 
      8452    80.654  1.02E+02       143            2.47E-04 
      8453    80.662  1.85E+02       141            2.42E-04 
      8454    80.670  1.07E+02       139            2.46E-04 
      8455    80.678  1.24E+02       138            2.46E-04 
      8456    80.686  2.50E+02       136            2.38E-04 
      8457    80.693  3.70E+01       135            2.51E-04 
      8458    80.701  7.30E+01       134            2.49E-04 
      8459    80.709  1.00E+01       133            2.53E-04 
      8460    80.717  6.10E+01       133            2.50E-04 
      8461    80.724  9.00E+01       132            2.48E-04 
      8462    80.732  1.32E+02       132            2.46E-04 
      8463    80.740  5.90E+01       131            2.50E-04 
      8464    80.748  8.10E+01       131            2.49E-04 
      8465    80.755  1.79E+02       131            2.43E-04 
      8466    80.763  4.40E+01       131            2.51E-04 
      8467    80.771  6.00E+01       131            2.50E-04 
      8468    80.779  1.18E+02       131            2.47E-04 
      8469    80.786  1.39E+02       131            2.46E-04 
      8470    80.794  1.28E+02       131            2.46E-04 
      8471    80.802  3.03E+02       132            2.36E-04 
      8472    80.810  5.20E+01       132            2.51E-04 
      8473    80.818  1.51E+02       132            2.45E-04 
      8474    80.825  2.17E+02       132            2.42E-04 
      8475    80.833  6.60E+01       133            2.51E-04 
      8476    80.841  1.10E+02       133            2.48E-04 
      8477    80.849  1.59E+02       133            2.45E-04 
      8478    80.856  1.42E+02       133            2.46E-04 
      8479    80.864  1.10E+02       134            2.48E-04 
      8480    80.872  1.96E+02       134            2.43E-04 
      8481    80.880  8.50E+01       135            2.50E-04 
      8482    80.887  8.60E+01       135            2.50E-04 
      8483    80.895  1.06E+02       135            2.49E-04 
      8484    80.903  2.77E+02       136            2.39E-04 
      8485    80.911  1.06E+02       136            2.49E-04 
      8486    80.919  1.58E+02       137            2.46E-04 
      8487    80.926  8.60E+01       137            2.50E-04 
      8488    80.934  1.38E+02       138            2.47E-04 
      8489    80.942  1.94E+02       138            2.44E-04 
      8490    80.950  1.50E+02       139            2.47E-04 
      8491    80.957  1.73E+02       139            2.45E-04 
      8492    80.965  2.08E+02       140            2.43E-04 
      8493    80.973  4.20E+01       140            2.54E-04 
      8494    80.981  1.96E+02       141            2.44E-04 
      8495    80.988  1.96E+02       142            2.44E-04 
      8496    80.996  1.40E+02       142            2.48E-04 
      8497    81.004  1.30E+02       143            2.49E-04 
      8498    81.012  2.25E+02       144            2.43E-04 
      8499    81.020  8.70E+01       145            2.51E-04 
      8500    81.027  1.77E+02       146            2.46E-04 
      8501    81.035 -7.60E+01       146            2.62E-04 
      8502    81.043  2.04E+02       147            2.44E-04 
      8503    81.051  1.85E+02       148            2.46E-04 
      8504    81.058  1.33E+02       149            2.49E-04 
      8505    81.066  7.70E+01       150            2.53E-04 
      8506    81.074  1.13E+02       151            2.50E-04 
      8507    81.082  1.84E+02       152            2.46E-04 
      8508    81.089  1.19E+02       154            2.50E-04 
      8509    81.097  1.62E+02       155            2.48E-04 
      8510    81.105  9.00E+01       156            2.52E-04 
      8511    81.113  1.71E+02       158            2.47E-04 
      8512    81.120  1.55E+02       159            2.48E-04 
      8513    81.128  1.97E+02       161            2.46E-04 
      8514    81.136  2.27E+02       162            2.44E-04 
      8515    81.144  2.47E+02       164            2.43E-04 
      8516    81.152  1.92E+02       166            2.46E-04 
      8517    81.159  1.29E+02       168            2.50E-04 
      8518    81.167  1.09E+02       170            2.52E-04 
      8519    81.175  1.22E+02       172            2.51E-04 
      8520    81.183  2.75E+02       175            2.42E-04 
      8521    81.190  1.80E+02       177            2.47E-04 
      8522    81.198  1.67E+02       180            2.48E-04 
      8523    81.206  1.69E+02       183            2.48E-04 
      8524    81.214  2.31E+02       186            2.45E-04 
      8525    81.221  1.39E+02       189            2.50E-04 
      8526    81.229  2.10E+02       192            2.46E-04 
      8527    81.237  2.22E+02       196            2.45E-04 
      8528    81.245  1.36E+02       200            2.51E-04 
      8529    81.253  1.87E+02       205            2.48E-04 
      8530    81.260  1.10E+02       210            2.53E-04 
      8531    81.268  2.47E+02       215            2.44E-04 
      8532    81.276  2.62E+02       221            2.43E-04 
      8533    81.284  1.67E+02       228            2.49E-04 
      8534    81.291  8.80E+01       237            2.54E-04 
      8535    81.299  1.94E+02       246            2.48E-04 
      8536    81.307  1.90E+02       258            2.48E-04 
      8537    81.315  2.49E+02       271            2.44E-04 
      8538    81.322  2.89E+02       287            2.42E-04 
      8539    81.330  1.95E+02       307            2.48E-04 
      8540    81.338  1.91E+02       332            2.48E-04 
      8541    81.346  1.85E+02       361            2.49E-04 
      8542    81.353  3.73E+02       397            2.38E-04 
      8543    81.361  3.62E+02       441            2.38E-04 
      8544    81.369  4.09E+02       494            2.36E-04 
      8545    81.377  4.96E+02       557            2.31E-04 
      8546    81.385  4.27E+02       633            2.35E-04 
      8547    81.392  4.04E+02       722            2.36E-04 
      8548    81.400  5.12E+02       827            2.30E-04 
      8549    81.408  8.30E+02       949            2.15E-04 
      8550    81.416  9.62E+02  1.09E+03            2.09E-04 
      8551    81.423  1.01E+03  1.24E+03            2.07E-04 
      8552    81.431  1.17E+03  1.42E+03            2.00E-04 
      8553    81.439  1.50E+03  1.61E+03            1.88E-04 
      8554    81.447  1.72E+03  1.82E+03            1.81E-04 
      8555    81.454  2.22E+03  2.05E+03            1.66E-04 
      8556    81.462  2.28E+03  2.28E+03            1.64E-04 
      8557    81.470  2.69E+03  2.52E+03            1.54E-04 
      8558    81.478  2.91E+03  2.77E+03            1.49E-04 
      8559    81.486  3.37E+03  3.01E+03            1.39E-04 
      8560    81.493  3.48E+03  3.24E+03            1.37E-04 
      8561    81.501  3.72E+03  3.46E+03            1.33E-04 
      8562    81.509  3.92E+03  3.65E+03            1.29E-04 
      8563    81.517  4.00E+03  3.81E+03            1.28E-04 
      8564    81.524  4.15E+03  3.93E+03            1.26E-04 
      8565    81.532  4.34E+03  4.00E+03            1.23E-04 
      8566    81.540  4.41E+03  4.02E+03            1.22E-04 
      8567    81.548  4.36E+03  4.00E+03            1.23E-04 
      8568    81.555  4.16E+03  3.92E+03            1.26E-04 
      8569    81.563  4.03E+03  3.79E+03            1.28E-04 
      8570    81.571  3.98E+03  3.63E+03            1.29E-04 
      8571    81.579  3.64E+03  3.44E+03            1.35E-04 
      8572    81.586  3.30E+03  3.22E+03            1.41E-04 
      8573    81.594  3.23E+03  2.99E+03            1.42E-04 
      8574    81.602  2.96E+03  2.75E+03            1.48E-04 
      8575    81.610  2.59E+03  2.51E+03            1.57E-04 
      8576    81.618  2.30E+03  2.28E+03            1.64E-04 
      8577    81.625  2.04E+03  2.05E+03            1.72E-04 
      8578    81.633  1.85E+03  1.84E+03            1.77E-04 
      8579    81.641  1.51E+03  1.65E+03            1.89E-04 
      8580    81.649  1.48E+03  1.47E+03            1.90E-04 
      8581    81.656  1.43E+03  1.31E+03            1.92E-04 
      8582    81.664  1.18E+03  1.18E+03            2.02E-04 
      8583    81.672  1.03E+03  1.06E+03            2.08E-04 
      8584    81.680  1.07E+03       970            2.06E-04 
      8585    81.687  9.65E+02       896            2.11E-04 
      8586    81.695  9.88E+02       842            2.10E-04 
      8587    81.703  8.22E+02       805            2.17E-04 
      8588    81.711  9.53E+02       784            2.12E-04 
      8589    81.719  7.76E+02       777            2.20E-04 
      8590    81.726  8.19E+02       783            2.18E-04 
      8591    81.734  8.04E+02       800            2.19E-04 
      8592    81.742  8.89E+02       826            2.15E-04 
      8593    81.750  8.43E+02       860            2.17E-04 
      8594    81.757  9.95E+02       898            2.10E-04 
      8595    81.765  1.01E+03       941            2.10E-04 
      8596    81.773  1.07E+03       985            2.07E-04 
      8597    81.781  9.78E+02  1.03E+03            2.11E-04 
      8598    81.788  9.11E+02  1.07E+03            2.14E-04 
      8599    81.796  1.05E+03  1.11E+03            2.08E-04 
      8600    81.804  1.08E+03  1.14E+03            2.07E-04 
      8601    81.812  1.06E+03  1.17E+03            2.08E-04 
      8602    81.820  9.28E+02  1.19E+03            2.13E-04 
      8603    81.827  1.10E+03  1.20E+03            2.06E-04 
      8604    81.835  1.08E+03  1.21E+03            2.07E-04 
      8605    81.843  1.11E+03  1.21E+03            2.06E-04 
      8606    81.851  9.26E+02  1.21E+03            2.14E-04 
      8607    81.858  1.20E+03  1.21E+03            2.02E-04 
      8608    81.866  1.09E+03  1.21E+03            2.07E-04 
      8609    81.874  1.13E+03  1.20E+03            2.05E-04 
      8610    81.882  1.22E+03  1.21E+03            2.01E-04 
      8611    81.889  1.19E+03  1.21E+03            2.03E-04 
      8612    81.897  1.08E+03  1.21E+03            2.07E-04 
      8613    81.905  1.26E+03  1.22E+03            2.00E-04 
      8614    81.913  1.27E+03  1.24E+03            2.00E-04 
      8615    81.920  1.35E+03  1.25E+03            1.97E-04 
      8616    81.928  1.43E+03  1.26E+03            1.93E-04 
      8617    81.936  1.26E+03  1.27E+03            2.00E-04 
      8618    81.944  1.54E+03  1.28E+03            1.89E-04 
      8619    81.952  1.48E+03  1.28E+03            1.92E-04 
      8620    81.959  1.55E+03  1.28E+03            1.89E-04 
      8621    81.967  1.36E+03  1.26E+03            1.97E-04 
      8622    81.975  1.51E+03  1.24E+03            1.91E-04 
      8623    81.983  1.47E+03  1.21E+03            1.92E-04 
      8624    81.990  1.45E+03  1.16E+03            1.93E-04 
      8625    81.998  1.37E+03  1.11E+03            1.96E-04 
      8626    82.006  1.41E+03  1.05E+03            1.95E-04 
      8627    82.014  1.27E+03       992            2.00E-04 
      8628    82.021  1.11E+03       926            2.07E-04 
      8629    82.029  9.94E+02       859            2.12E-04 
      8630    82.037  9.33E+02       792            2.15E-04 
      8631    82.045  9.52E+02       727            2.14E-04 
      8632    82.053  8.53E+02       663            2.19E-04 
      8633    82.060  6.81E+02       603            2.27E-04 
      8634    82.068  5.40E+02       547            2.35E-04 
      8635    82.076  5.41E+02       495            2.35E-04 
      8636    82.084  6.76E+02       447            2.28E-04 
      8637    82.091  5.24E+02       405            2.36E-04 
      8638    82.099  5.32E+02       367            2.36E-04 
      8639    82.107  4.02E+02       333            2.43E-04 
      8640    82.115  3.59E+02       304            2.46E-04 
      8641    82.122  4.39E+02       279            2.41E-04 
      8642    82.130  3.86E+02       258            2.44E-04 
      8643    82.138  4.05E+02       240            2.43E-04 
      8644    82.146  3.40E+02       225            2.47E-04 
      8645    82.153  2.89E+02       212            2.51E-04 
      8646    82.161  3.96E+02       202            2.44E-04 
      8647    82.169  2.56E+02       193            2.53E-04 
      8648    82.177  2.47E+02       185            2.54E-04 
      8649    82.185  2.99E+02       179            2.50E-04 
      8650    82.192  3.91E+02       174            2.45E-04 
      8651    82.200  2.89E+02       169            2.51E-04 
      8652    82.208  1.12E+02       166            2.63E-04 
      8653    82.216  2.15E+02       162            2.56E-04 
      8654    82.223  2.69E+02       159            2.53E-04 
      8655    82.231  2.60E+02       157            2.53E-04 
      8656    82.239  2.49E+02       155            2.54E-04 
      8657    82.247  6.30E+01       152            2.67E-04 
      8658    82.254  2.61E+02       151            2.54E-04 
      8659    82.262  1.48E+02       149            2.61E-04 
      8660    82.270  9.60E+01       147            2.65E-04 
      8661    82.278  1.20E+02       146            2.63E-04 
      8662    82.286  1.43E+02       144            2.62E-04 
      8663    82.293  1.57E+02       143            2.61E-04 
      8664    82.301  1.83E+02       142            2.59E-04 
      8665    82.309  1.72E+02       140            2.60E-04 
      8666    82.317  2.01E+02       139            2.58E-04 
      8667    82.324  2.90E+02       138            2.52E-04 
      8668    82.332  2.44E+02       137            2.55E-04 
      8669    82.340  1.70E+02       136            2.60E-04 
      8670    82.348  1.92E+02       135            2.59E-04 
      8671    82.355  1.63E+02       134            2.61E-04 
      8672    82.363  2.12E+02       133            2.58E-04 
      8673    82.371  1.57E+02       133            2.62E-04 
      8674    82.379  1.03E+02       132            2.66E-04 
      8675    82.386  1.75E+02       131            2.61E-04 
      8676    82.394  1.46E+02       130            2.63E-04 
      8677    82.402  0.00E+00       130            2.73E-04 
      8678    82.410  1.71E+02       129            2.61E-04 
      8679    82.418  1.70E+02       128            2.61E-04 
      8680    82.425  8.50E+01       128            2.67E-04 
      8681    82.433  2.15E+02       127            2.59E-04 
      8682    82.441  1.36E+02       127            2.64E-04 
      8683    82.449  9.60E+01       126            2.67E-04 
      8684    82.456  6.00E+01       126            2.70E-04 
      8685    82.464  9.90E+01       125            2.67E-04 
      8686    82.472  2.53E+02       125            2.56E-04 
      8687    82.480  1.50E+02       124            2.63E-04 
      8688    82.487  1.04E+02       124            2.67E-04 
      8689    82.495  2.27E+02       123            2.58E-04 
      8690    82.503  1.69E+02       123            2.62E-04 
      8691    82.511  2.27E+02       122            2.59E-04 
      8692    82.519  8.20E+01       122            2.69E-04 
      8693    82.526  1.56E+02       121            2.64E-04 
      8694    82.534  1.40E+02       121            2.65E-04 
      8695    82.542  3.42E+02       121            2.51E-04 
      8696    82.550  1.58E+02       120            2.64E-04 
      8697    82.557  1.86E+02       120            2.62E-04 
      8698    82.565  1.74E+02       120            2.63E-04 
      8699    82.573  7.70E+01       119            2.70E-04 
      8700    82.581  2.70E+01       119            2.74E-04 
      8701    82.588  1.14E+02       119            2.67E-04 
      8702    82.596  8.50E+01       118            2.69E-04 
      8703    82.604  9.50E+01       118            2.69E-04 
      8704    82.612  1.50E+02       118            2.65E-04 
      8705    82.619  1.06E+02       118            2.68E-04 
      8706    82.627  1.41E+02       117            2.66E-04 
      8707    82.635  1.05E+02       117            2.69E-04 
      8708    82.643  1.39E+02       117            2.66E-04 
      8709    82.651  1.47E+02       117            2.66E-04 
      8710    82.658  2.00E+00       116            2.76E-04 
      8711    82.666  3.30E+01       116            2.74E-04 
      8712    82.674  5.40E+01       116            2.73E-04 
      8713    82.682  8.70E+01       116            2.70E-04 
      8714    82.689  1.81E+02       116            2.64E-04 
      8715    82.697  1.12E+02       116            2.69E-04 
      8716    82.705  2.50E+01       116            2.75E-04 
      8717    82.713  1.19E+02       116            2.68E-04 
      8718    82.720  2.20E+01       115            2.76E-04 
      8719    82.728  1.56E+02       116            2.66E-04 
      8720    82.736  7.70E+01       116            2.72E-04 
      8721    82.744  2.15E+02       116            2.62E-04 
      8722    82.752  4.80E+01       116            2.74E-04 
      8723    82.759  1.53E+02       116            2.67E-04 
      8724    82.767  7.90E+01       116            2.72E-04 
      8725    82.775  6.80E+01       117            2.73E-04 
      8726    82.783  9.60E+01       117            2.71E-04 
      8727    82.790  9.00E+01       117            2.71E-04 
      8728    82.798  1.61E+02       118            2.66E-04 
      8729    82.806  2.60E+01       118            2.77E-04 
      8730    82.814  1.86E+02       119            2.65E-04 
      8731    82.821  2.23E+02       120            2.62E-04 
      8732    82.829  2.25E+02       120            2.62E-04 
      8733    82.837  9.90E+01       121            2.71E-04 
      8734    82.845  1.55E+02       122            2.67E-04 
      8735    82.853  7.60E+01       123            2.73E-04 
      8736    82.860  2.11E+02       124            2.64E-04 
      8737    82.868  5.40E+01       124            2.75E-04 
      8738    82.876  3.80E+01       125            2.76E-04 
      8739    82.884  3.70E+01       126            2.77E-04 
      8740    82.891  4.70E+01       127            2.76E-04 
      8741    82.899  7.60E+01       128            2.74E-04 
      8742    82.907  1.51E+02       128            2.69E-04 
      8743    82.915  1.52E+02       129            2.69E-04 
      8744    82.922  2.11E+02       129            2.64E-04 
      8745    82.930  1.88E+02       130            2.66E-04 
      8746    82.938 -2.70E+01       130            2.82E-04 
      8747    82.946  5.00E+00       130            2.80E-04 
      8748    82.953  1.00E+02       130            2.73E-04 
      8749    82.961  1.18E+02       130            2.72E-04 
      8750    82.969  2.29E+02       130            2.64E-04 
      8751    82.977  1.03E+02       130            2.73E-04 
      8752    82.985  1.59E+02       129            2.69E-04 
      8753    82.992  1.53E+02       129            2.69E-04 
      8754    83.000  2.05E+02       128            2.66E-04 
      8755    83.008  1.31E+02       127            2.71E-04 
      8756    83.016  3.16E+02       126            2.58E-04 
      8757    83.023  1.76E+02       125            2.68E-04 
      8758    83.031  4.60E+01       124            2.78E-04 
      8759    83.039  1.71E+02       123            2.69E-04 
      8760    83.047  1.79E+02       122            2.68E-04 
      8761    83.054  1.40E+02       121            2.71E-04 
      8762    83.062  1.03E+02       120            2.74E-04 
      8763    83.070  1.12E+02       119            2.73E-04 
      8764    83.078  9.80E+01       118            2.74E-04 
      8765    83.086  1.33E+02       117            2.72E-04 
      8766    83.093  1.04E+02       116            2.74E-04 
      8767    83.101  2.50E+01       115            2.80E-04 
      8768    83.109  1.64E+02       114            2.70E-04 
      8769    83.117  2.06E+02       113            2.67E-04 
      8770    83.124  1.03E+02       112            2.75E-04 
      8771    83.132  8.50E+01       111            2.76E-04 
      8772    83.140  3.30E+01       110            2.80E-04 
      8773    83.148  8.70E+01       110            2.76E-04 
      8774    83.155  1.58E+02       109            2.71E-04 
      8775    83.163  1.93E+02       109            2.69E-04 
      8776    83.171  9.30E+01       108            2.76E-04 
      8777    83.179  1.64E+02       108            2.71E-04 
      8778    83.186  1.50E+02       107            2.72E-04 
      8779    83.194  1.58E+02       104            2.71E-04 
      8780    83.202  7.10E+01       104            2.78E-04 
      8781    83.210 -3.00E+00       104            2.84E-04 
      8782    83.218  8.40E+01       103            2.77E-04 
      8783    83.225  3.40E+01       103            2.81E-04 
      8784    83.233  8.00E+01       103            2.78E-04 
      8785    83.241  8.00E+01       103            2.78E-04 
      8786    83.249  3.60E+01       103            2.82E-04 
      8787    83.256  1.16E+02       103            2.75E-04 
      8788    83.264  3.90E+01       102            2.81E-04 
      8789    83.272  9.90E+01       102            2.77E-04 
      8790    83.280  8.90E+01       102            2.78E-04 
      8791    83.287  8.60E+01       102            2.78E-04 
      8792    83.295  4.40E+01       102            2.81E-04 
      8793    83.303  9.90E+01       102            2.77E-04 
      8794    83.311  8.20E+01       102            2.79E-04 
      8795    83.319  1.65E+02       102            2.72E-04 
      8796    83.326  1.96E+02       102            2.70E-04 
      8797    83.334  1.64E+02       102            2.73E-04 
      8798    83.342  1.70E+02       101            2.72E-04 
      8799    83.350  1.81E+02       101            2.72E-04 
      8800    83.357  1.58E+02       101            2.73E-04 
      8801    83.365  1.10E+02       101            2.77E-04 
      8802    83.373  6.60E+01       101            2.81E-04 
      8803    83.381  9.00E+01       101            2.79E-04 
      8804    83.388 -8.00E+00       101            2.87E-04 
      8805    83.396  4.10E+01       101            2.83E-04 
      8806    83.404  5.70E+01       101            2.82E-04 
      8807    83.412  1.66E+02       101            2.73E-04 
      8808    83.420  1.84E+02       101            2.72E-04 
      8809    83.427  5.90E+01       101            2.82E-04 
      8810    83.435  1.59E+02       101            2.74E-04 
      8811    83.443  9.90E+01       100            2.79E-04 
      8812    83.451  1.05E+02       100            2.78E-04 
      8813    83.458  1.70E+02       100            2.74E-04 
      8814    83.466  3.20E+01       100            2.84E-04 
      8815    83.474  1.14E+02      99.7            2.78E-04 
      8816    83.482  2.17E+02      99.6            2.70E-04 
      8817    83.489  2.01E+02      99.6            2.72E-04 
      8818    83.497  1.37E+02      99.6            2.76E-04 
      8819    83.505  9.00E+01      99.5            2.80E-04 
      8820    83.513  1.55E+02      99.5            2.75E-04 
      8821    83.520  9.90E+01      99.4            2.80E-04 
      8822    83.528  6.10E+01      99.4            2.83E-04 
      8823    83.536  2.31E+02      99.3            2.70E-04 
      8824    83.544  2.11E+02      99.3            2.71E-04 
      8825    83.552  7.90E+01      99.3            2.82E-04 
      8826    83.559 -6.00E+00      99.2            2.89E-04 
      8827    83.567  1.76E+02      99.2            2.74E-04 
      8828    83.575  9.30E+01      99.2            2.81E-04 
      8829    83.583  7.20E+01      99.1            2.83E-04 
      8830    83.590  1.81E+02      99.1            2.74E-04 
      8831    83.598  1.36E+02      99.1            2.78E-04 
      8832    83.606  2.50E+02        99            2.69E-04 
      8833    83.614  1.35E+02        99            2.78E-04 
      8834    83.621  9.10E+01      98.3            2.82E-04 
      8835    83.629  1.64E+02      98.3            2.76E-04 
      8836    83.637  6.70E+01      98.3            2.84E-04 
      8837    83.645  1.16E+02      98.2            2.80E-04 
      8838    83.653  7.80E+01      98.2            2.83E-04 
      8839    83.660  1.36E+02      98.2            2.78E-04 
      8840    83.668  6.00E+01      98.2            2.84E-04 
      8841    83.676  4.90E+01      98.2            2.86E-04 
      8842    83.684  1.58E+02      98.2            2.77E-04 
      8843    83.691  8.30E+01      98.2            2.83E-04 
      8844    83.699  8.40E+01      98.2            2.83E-04 
      8845    83.707  1.58E+02      98.3            2.77E-04 
      8846    83.715  2.30E+01      98.3            2.88E-04 
      8847    83.722  5.70E+01      99.1            2.85E-04 
      8848    83.730  1.31E+02      99.2            2.80E-04 
      8849    83.738  1.28E+02      99.3            2.80E-04 
      8850    83.746  1.99E+02      99.4            2.75E-04 
      8851    83.753  7.80E+01      99.6            2.84E-04 
      8852    83.761  1.41E+02      99.7            2.79E-04 
      8853    83.769  1.19E+02      99.9            2.81E-04 
      8854    83.777  9.90E+01       100            2.83E-04 
      8855    83.785  1.25E+02       100            2.81E-04 
      8856    83.792  7.20E+01       101            2.85E-04 
      8857    83.800  1.99E+02       101            2.75E-04 
      8858    83.808  1.11E+02       102            2.82E-04 
      8859    83.816  1.80E+02       102            2.77E-04 
      8860    83.823  1.02E+02       103            2.83E-04 
      8861    83.831  1.58E+02       104            2.79E-04 
      8862    83.839  1.25E+02       105            2.81E-04 
      8863    83.847  9.50E+01       106            2.84E-04 
      8864    83.854  5.60E+01       108            2.87E-04 
      8865    83.862  1.48E+02       109            2.80E-04 
      8866    83.870  1.35E+02       111            2.81E-04 
      8867    83.878  1.24E+02       114            2.82E-04 
      8868    83.886  1.87E+02       117            2.77E-04 
      8869    83.893  2.26E+02       120            2.74E-04 
      8870    83.901  1.40E+02       124            2.81E-04 
      8871    83.909  9.20E+01       129            2.85E-04 
      8872    83.917  3.10E+01       134            2.90E-04 
      8873    83.924  1.73E+02       140            2.79E-04 
      8874    83.932  5.90E+01       146            2.88E-04 
      8875    83.940  1.76E+02       153            2.78E-04 
      8876    83.948  1.56E+02       161            2.80E-04 
      8877    83.955  1.19E+02       170            2.83E-04 
      8878    83.963  2.13E+02       180            2.76E-04 
      8879    83.971  1.34E+02       190            2.82E-04 
      8880    83.979  1.50E+01       201            2.92E-04 
      8881    83.986  2.44E+02       212            2.74E-04 
      8882    83.994  2.09E+02       223            2.77E-04 
      8883    84.002  2.36E+02       234            2.75E-04 
      8884    84.010  1.61E+02       246            2.80E-04 
      8885    84.018  2.38E+02       257            2.75E-04 
      8886    84.025  2.51E+02       267            2.74E-04 
      8887    84.033  3.01E+02       276            2.70E-04 
      8888    84.041  3.00E+02       285            2.70E-04 
      8889    84.049  3.07E+02       291            2.70E-04 
      8890    84.056  2.38E+02       297            2.75E-04 
      8891    84.064  3.97E+02       300            2.64E-04 
      8892    84.072  3.41E+02       301            2.68E-04 
      8893    84.080  3.35E+02       301            2.68E-04 
      8894    84.087  2.57E+02       298            2.74E-04 
      8895    84.095  2.88E+02       294            2.72E-04 
      8896    84.103  4.17E+02       289            2.63E-04 
      8897    84.111  3.35E+02       282            2.69E-04 
      8898    84.119  3.11E+02       274            2.70E-04 
      8899    84.126  2.37E+02       265            2.76E-04 
      8900    84.134  2.14E+02       256            2.78E-04 
      8901    84.142  1.10E+02       246            2.86E-04 
      8902    84.150  2.23E+02       236            2.77E-04 
      8903    84.157  2.63E+02       226            2.74E-04 
      8904    84.165  2.07E+02       216            2.79E-04 
      8905    84.173  2.36E+02       206            2.77E-04 
      8906    84.181  9.00E+01       196            2.88E-04 
      8907    84.188  1.99E+02       187            2.80E-04 
      8908    84.196  1.07E+02       179            2.87E-04 
      8909    84.204  1.31E+02       170            2.85E-04 
      8910    84.212  1.06E+02       163            2.87E-04 
      8911    84.220  2.15E+02       156            2.79E-04 
      8912    84.227  2.29E+02       149            2.78E-04 
      8913    84.235  1.33E+02       143            2.85E-04 
      8914    84.243  9.60E+01       138            2.88E-04 
      8915    84.251  1.03E+02       132            2.88E-04 
      8916    84.258  1.61E+02       128            2.83E-04 
      8917    84.266  7.10E+01       124            2.91E-04 
      8918    84.274  1.73E+02       120            2.83E-04 
      8919    84.282  2.03E+02       117            2.80E-04 
      8920    84.289  1.52E+02       114            2.84E-04 
      8921    84.297  1.55E+02       111            2.84E-04 
      8922    84.305  1.39E+02       109            2.86E-04 
      8923    84.313  1.42E+02       107            2.86E-04 
      8924    84.320  1.80E+02       105            2.83E-04 
      8925    84.328  9.00E+01       103            2.90E-04 
      8926    84.336  7.00E+01       102            2.92E-04 
      8927    84.344  1.49E+02       101            2.85E-04 
      8928    84.352  2.95E+02      99.4            2.74E-04 
      8929    84.359  1.18E+02      98.5            2.88E-04 
      8930    84.367  6.80E+01      97.7            2.92E-04 
      8931    84.375  6.60E+01      96.9            2.93E-04 
      8932    84.383  1.47E+02      96.3            2.86E-04 
      8933    84.390  1.25E+02      95.7            2.88E-04 
      8934    84.398  2.40E+01      95.3            2.97E-04 
      8935    84.406  1.68E+02      94.8            2.85E-04 
      8936    84.414  3.44E+02      94.5            2.71E-04 
      8937    84.421  1.51E+02      94.1            2.86E-04 
      8938    84.429  2.34E+02      93.8            2.80E-04 
      8939    84.437  9.80E+01      93.6            2.91E-04 
      8940    84.445  1.01E+02      93.3            2.91E-04 
      8941    84.453  0.00E+00      93.1            2.99E-04 
      8942    84.460  1.00E+02      92.9            2.91E-04 
      8943    84.468  1.48E+02      92.7            2.87E-04 
      8944    84.476  6.50E+01      92.5            2.94E-04 
      8945    84.484  1.25E+02      91.6            2.89E-04 
      8946    84.491 -1.70E+01      91.5            3.02E-04 
      8947    84.499  9.20E+01      92.1            2.92E-04 
      8948    84.507  8.80E+01        92            2.92E-04 
      8949    84.515  7.60E+01      91.9            2.94E-04 
      8950    84.522  1.28E+02      91.7            2.89E-04 
      8951    84.530  1.43E+02      91.6            2.88E-04 
      8952    84.538 -2.30E+01      91.5            3.03E-04 
      8953    84.546  1.14E+02      91.4            2.91E-04 
      8954    84.553  5.50E+01      91.3            2.96E-04 
      8955    84.561  9.80E+01      91.2            2.92E-04 
      8956    84.569  4.00E+01      91.1            2.97E-04 
      8957    84.577  5.00E+01        91            2.97E-04 
      8958    84.585  1.18E+02      90.9            2.91E-04 
      8959    84.592  9.50E+01      90.8            2.93E-04 
      8960    84.600  6.80E+01      90.7            2.95E-04 
      8961    84.608  1.08E+02      90.7            2.92E-04 
      8962    84.616  1.01E+02      90.6            2.93E-04 
      8963    84.623  1.74E+02      90.5            2.87E-04 
      8964    84.631  9.00E+01      90.5            2.94E-04 
      8965    84.639  1.17E+02      90.4            2.92E-04 
      8966    84.647  1.37E+02      90.4            2.90E-04 
      8967    84.654  9.70E+01      90.4            2.94E-04 
      8968    84.662  1.15E+02      90.4            2.92E-04 
      8969    84.670  1.11E+02      90.4            2.93E-04 
      8970    84.678  8.90E+01      90.4            2.95E-04 
      8971    84.686  9.80E+01      90.4            2.94E-04 
      8972    84.693  1.22E+02      90.5            2.92E-04 
      8973    84.701  1.21E+02      90.5            2.92E-04 
      8974    84.709  1.37E+02      90.6            2.91E-04 
      8975    84.717  1.74E+02      90.7            2.88E-04 
      8976    84.724 -4.00E+00      90.8            3.03E-04 
      8977    84.732  1.19E+02      90.9            2.93E-04 
      8978    84.740 -7.60E+01        91            3.10E-04 
      8979    84.748  1.22E+02      91.1            2.93E-04 
      8980    84.755  7.90E+01      91.3            2.96E-04 
      8981    84.763  1.75E+02      91.4            2.88E-04 
      8982    84.771  1.46E+02      91.6            2.91E-04 
      8983    84.779  1.93E+02      91.7            2.87E-04 
      8984    84.786  7.20E+01      91.9            2.97E-04 
      8985    84.794  1.97E+02      92.1            2.87E-04 
      8986    84.802  1.81E+02      92.2            2.88E-04 
      8987    84.810  6.20E+01      92.4            2.99E-04 
      8988    84.818  1.53E+02      92.5            2.91E-04 
      8989    84.825  2.04E+02      92.6            2.87E-04 
      8990    84.833  9.60E+01      92.7            2.96E-04 
      8991    84.841  1.32E+02      92.8            2.93E-04 
      8992    84.849  4.30E+01      92.9            3.01E-04 
      8993    84.856  2.56E+02      92.9            2.83E-04 
      8994    84.864  1.57E+02      92.9            2.91E-04 
      8995    84.872  1.30E+02      92.9            2.93E-04 
      8996    84.880  1.71E+02      92.9            2.90E-04 
      8997    84.887  1.75E+02      92.8            2.90E-04 
      8998    84.895  1.83E+02      92.7            2.89E-04 
      8999    84.903  1.45E+02      92.5            2.93E-04 
      9000    84.911  1.00E+02      92.3            2.97E-04 
      9001    84.919  7.40E+01      92.1            2.99E-04 
      9002    84.926  1.09E+02      91.9            2.96E-04 
      9003    84.934  2.00E+01      91.6            3.04E-04 
      9004    84.942  1.27E+02      91.4            2.95E-04 
      9005    84.950  5.90E+01      91.1            3.01E-04 
      9006    84.957 -3.10E+01      90.8            3.09E-04 
      9007    84.965  9.90E+01      90.5            2.97E-04 
      9008    84.973  1.25E+02      90.1            2.95E-04 
      9009    84.981  6.50E+01      89.8            3.01E-04 
      9010    84.988  9.30E+01      89.5            2.98E-04 
      9011    84.996  1.20E+02      89.2            2.96E-04 
      9012    85.004  1.78E+02      88.9            2.91E-04 
      9013    85.012  7.90E+01      88.5            3.00E-04 
      9014    85.020  1.16E+02      88.2            2.97E-04 
      9015    85.027  2.28E+02      87.9            2.87E-04 
      9016    85.035  1.10E+02      87.7            2.97E-04 
      9017    85.043  2.40E+01      87.4            3.05E-04 
      9018    85.051  1.07E+02      87.1            2.98E-04 
      9019    85.058  9.00E+01      86.9            2.99E-04 
      9020    85.066  1.39E+02      86.7            2.95E-04 
      9021    85.074 -7.40E+01      86.5            3.15E-04 
      9022    85.082  4.50E+01      86.3            3.04E-04 
      9023    85.089  9.90E+01      86.1            2.99E-04 
      9024    85.097  6.00E+01      85.9            3.03E-04 
      9025    85.105  1.56E+02      85.7            2.94E-04 
      9026    85.113  7.60E+01      85.6            3.01E-04 
      9027    85.120  1.22E+02      85.4            2.97E-04 
      9028    85.128  4.70E+01      85.3            3.04E-04 
      9029    85.136  1.10E+02      85.1            2.99E-04 
      9030    85.144  1.74E+02        85            2.93E-04 
      9031    85.152  8.10E+01      84.9            3.01E-04 
      9032    85.159  8.20E+01      84.8            3.01E-04 
      9033    85.167  1.83E+02      84.7            2.93E-04 
      9034    85.175  1.11E+02      84.6            2.99E-04 
      9035    85.183  4.00E+01      84.5            3.06E-04 
      9036    85.190  1.40E+02      84.4            2.97E-04 
      9037    85.198  4.80E+01      84.3            3.05E-04 
      9038    85.206  1.52E+02      84.2            2.96E-04 
      9039    85.214  7.60E+01      84.1            3.03E-04 
      9040    85.221  1.90E+01      85.3            3.08E-04 
      9041    85.229  6.00E+01      85.2            3.04E-04 
      9042    85.237  8.70E+01      85.2            3.02E-04 
      9043    85.245  2.90E+01      85.1            3.08E-04 
      9044    85.253  7.40E+01        85            3.03E-04 
      9045    85.260  8.60E+01        85            3.02E-04 
      9046    85.268  1.73E+02      84.9            2.95E-04 
      9047    85.276  9.70E+01      84.8            3.02E-04 
      9048    85.284  6.10E+01      84.8            3.05E-04 
      9049    85.291  1.81E+02      84.7            2.94E-04 
      9050    85.299  1.40E+02      84.6            2.98E-04 
      9051    85.307  8.40E+01      84.6            3.03E-04 
      9052    85.315  9.60E+01      84.5            3.02E-04 
      9053    85.322  1.75E+02      84.4            2.95E-04 
      9054    85.330  1.09E+02      84.4            3.01E-04 
      9055    85.338  1.06E+02      84.3            3.02E-04 
      9056    85.346  2.60E+01      84.2            3.09E-04 
      9057    85.353  9.20E+01      84.2            3.03E-04 
      9058    85.361 -4.20E+01      84.1            3.16E-04 
      9059    85.369  6.00E+01      84.1            3.06E-04 
      9060    85.377  5.60E+01        84            3.07E-04 
      9061    85.385  9.70E+01      83.9            3.03E-04 
      9062    85.392  1.27E+02      83.9            3.00E-04 
      9063    85.400  1.48E+02      83.8            2.98E-04 
      9064    85.408  1.14E+02      83.8            3.01E-04 
      9065    85.416  1.19E+02      83.7            3.01E-04 
      9066    85.423  1.61E+02      83.6            2.97E-04 
      9067    85.431  5.20E+01      83.6            3.07E-04 
      9068    85.439  5.00E+01      83.5            3.07E-04 
      9069    85.447  1.04E+02      83.5            3.02E-04 
      9070    85.454  6.30E+01      83.4            3.06E-04 
      9071    85.462  7.40E+01      83.3            3.05E-04 
      9072    85.470  7.80E+01      83.3            3.05E-04 
      9073    85.478  7.00E+01      83.2            3.06E-04 
      9074    85.486  9.10E+01      83.2            3.04E-04 
      9075    85.493  7.50E+01      83.1            3.05E-04 
      9076    85.501  1.22E+02        83            3.01E-04 
      9077    85.509  6.70E+01        83            3.06E-04 
      9078    85.517  1.33E+02      82.9            3.00E-04 
      9079    85.524  1.42E+02      82.9            2.99E-04 
      9080    85.532  1.22E+02      82.8            3.01E-04 
      9081    85.540  4.20E+01      82.8            3.09E-04 
      9082    85.548  5.00E+01      82.7            3.08E-04 
      9083    85.555  1.37E+02      82.6            3.00E-04 
      9084    85.563  1.51E+02      82.6            2.99E-04 
      9085    85.571  1.01E+02      82.5            3.03E-04 
      9086    85.579  1.46E+02      82.5            2.99E-04 
      9087    85.586  2.90E+01      82.4            3.10E-04 
      9088    85.594  2.13E+02      82.4            2.94E-04 
      9089    85.602  4.00E+01      82.3            3.09E-04 
      9090    85.610  2.17E+02      82.3            2.93E-04 
      9091    85.618  8.80E+01      82.2            3.05E-04 
      9092    85.625  1.33E+02      82.2            3.01E-04 
      9093    85.633  4.90E+01      82.1            3.09E-04 
      9094    85.641  9.90E+01      82.1            3.04E-04 
      9095    85.649  9.80E+01        82            3.04E-04 
      9096    85.656  2.30E+01        82            3.11E-04 
      9097    85.664  2.64E+02      81.9            2.89E-04 
      9098    85.672  1.96E+02      81.9            2.95E-04 
      9099    85.680  5.90E+01      81.8            3.08E-04 
      9100    85.687  8.50E+01      81.8            3.05E-04 
      9101    85.695  1.75E+02      81.7            2.97E-04 
      9102    85.703  5.10E+01      81.7            3.09E-04 
      9103    85.711  1.14E+02      82.4            3.03E-04 
      9104    85.719  1.90E+02      82.2            2.96E-04 
      9105    85.726 -2.00E+00      82.3            3.14E-04 
      9106    85.734  2.05E+02      82.3            2.95E-04 
      9107    85.742  1.27E+02      82.4            3.02E-04 
      9108    85.750  5.80E+01      82.4            3.08E-04 
      9109    85.757  1.16E+02      82.5            3.03E-04 
      9110    85.765  4.00E+01      82.7            3.10E-04 
      9111    85.773  1.30E+01      82.8            3.13E-04 
      9112    85.781  1.05E+02        83            3.04E-04 
      9113    85.788  9.90E+01      83.2            3.05E-04 
      9114    85.796  2.03E+02      83.5            2.95E-04 
      9115    85.804  1.36E+02      83.9            3.01E-04 
      9116    85.812  3.30E+01      84.3            3.11E-04 
      9117    85.820  1.20E+01      84.8            3.13E-04 
      9118    85.827  8.50E+01      85.4            3.06E-04 
      9119    85.835  9.20E+01        86            3.06E-04 
      9120    85.843  1.10E+02      87.1            3.04E-04 
      9121    85.851  1.43E+02        88            3.01E-04 
      9122    85.858  1.50E+01      89.1            3.13E-04 
      9123    85.866  1.44E+02      90.3            3.01E-04 
      9124    85.874  2.00E+01      91.6            3.13E-04 
      9125    85.882  1.45E+02      93.1            3.01E-04 
      9126    85.889  8.10E+01      94.8            3.07E-04 
      9127    85.897  1.70E+02      96.7            2.99E-04 
      9128    85.905  1.54E+02      98.7            3.00E-04 
      9129    85.913 -3.20E+01       101            3.18E-04 
      9130    85.920  6.10E+01       103            3.09E-04 
      9131    85.928  1.66E+02       106            2.99E-04 
      9132    85.936  4.10E+01       109            3.11E-04 
      9133    85.944  1.62E+02       112            3.00E-04 
      9134    85.952  4.80E+01       115            3.10E-04 
      9135    85.959  1.95E+02       118            2.97E-04 
      9136    85.967  1.76E+02       122            2.99E-04 
      9137    85.975  1.22E+02       126            3.04E-04 
      9138    85.983  8.60E+01       129            3.07E-04 
      9139    85.990  6.80E+01       133            3.09E-04 
      9140    85.998  1.74E+02       137            2.99E-04 
      9141    86.006  1.73E+02       141            2.99E-04 
      9142    86.014  1.11E+02       144            3.05E-04 
      9143    86.021  1.25E+02       148            3.03E-04 
      9144    86.029  1.10E+02       152            3.05E-04 
      9145    86.037  2.19E+02       155            2.95E-04 
      9146    86.045  1.29E+02       158            3.03E-04 
      9147    86.053  1.24E+02       161            3.04E-04 
      9148    86.060  2.86E+02       164            2.89E-04 
      9149    86.068  2.03E+02       166            2.97E-04 
      9150    86.076  2.20E+02       168            2.95E-04 
      9151    86.084  2.29E+02       170            2.95E-04 
      9152    86.091  1.79E+02       171            2.99E-04 
      9153    86.099  1.48E+02       172            3.02E-04 
      9154    86.107  1.16E+02       172            3.05E-04 
      9155    86.115  2.99E+02       172            2.89E-04 
      9156    86.122  1.81E+02       172            2.99E-04 
      9157    86.130  1.41E+02       171            3.03E-04 
      9158    86.138  2.05E+02       170            2.97E-04 
      9159    86.146  1.91E+02       169            2.98E-04 
      9160    86.153  2.05E+02       168            2.97E-04 
      9161    86.161  2.25E+02       166            2.95E-04 
      9162    86.169  2.01E+02       164            2.97E-04 
      9163    86.177  7.00E+01       162            3.09E-04 
      9164    86.185  1.68E+02       159            3.00E-04 
      9165    86.192  1.44E+02       157            3.03E-04 
      9166    86.200  1.31E+02       154            3.04E-04 
      9167    86.208  2.52E+02       151            2.93E-04 
      9168    86.216  1.47E+02       148            3.02E-04 
      9169    86.223  1.60E+02       145            3.01E-04 
      9170    86.231  1.90E+01       143            3.15E-04 
      9171    86.239  1.25E+02       140            3.05E-04 
      9172    86.247  1.87E+02       137            2.99E-04 
      9173    86.254  2.20E+02       134            2.96E-04 
      9174    86.262  1.80E+02       131            3.00E-04 
      9175    86.270  1.12E+02       128            3.06E-04 
      9176    86.278  1.57E+02       125            3.02E-04 
      9177    86.286  9.90E+01       122            3.07E-04 
      9178    86.293  1.82E+02       120            3.00E-04 
      9179    86.301  1.98E+02       117            2.98E-04 
      9180    86.309  3.00E+00       115            3.17E-04 
      9181    86.317  1.65E+02       112            3.01E-04 
      9182    86.324 -5.80E+01       110            3.23E-04 
      9183    86.332  7.50E+01       108            3.10E-04 
      9184    86.340  1.21E+02       106            3.05E-04 
      9185    86.348  1.39E+02       104            3.04E-04 
      9186    86.355  1.41E+02       103            3.04E-04 
      9187    86.363  1.76E+02       101            3.01E-04 
      9188    86.371  1.54E+02      99.9            3.03E-04 
      9189    86.379  4.40E+01      98.7            3.13E-04 
      9190    86.386  1.35E+02      97.6            3.04E-04 
      9191    86.394  8.30E+01      96.7            3.09E-04 
      9192    86.402  1.64E+02      95.9            3.02E-04 
      9193    86.410  3.20E+01      95.2            3.14E-04 
      9194    86.418  1.14E+02      94.7            3.07E-04 
      9195    86.425  8.20E+01      94.3            3.10E-04 
      9196    86.433  1.04E+02      93.9            3.08E-04 
      9197    86.441  5.80E+01      93.7            3.12E-04 
      9198    86.449  1.00E+01      93.6            3.17E-04 
      9199    86.456  1.49E+02      93.7            3.03E-04 
      9200    86.464  9.00E+01      93.8            3.09E-04 
      9201    86.472  8.60E+01        94            3.09E-04 
      9202    86.480  0.00E+00      94.3            3.18E-04 
      9203    86.487  8.80E+01      94.7            3.09E-04 
      9204    86.495  5.40E+01      95.1            3.13E-04 
      9205    86.503  1.42E+02      95.7            3.04E-04 
      9206    86.511  1.12E+02      96.4            3.07E-04 
      9207    86.519  1.40E+01      97.1            3.17E-04 
      9208    86.526  5.40E+01      97.9            3.13E-04 
      9209    86.534  2.07E+02      98.9            2.99E-04 
      9210    86.542 -1.00E+00      99.9            3.18E-04 
      9211    86.550  2.80E+01       101            3.16E-04 
      9212    86.557  1.22E+02       102            3.07E-04 
      9213    86.565  1.37E+02       104            3.05E-04 
      9214    86.573  8.40E+01       105            3.10E-04 
      9215    86.581  1.59E+02       107            3.03E-04 
      9216    86.588  4.40E+01       109            3.14E-04 
      9217    86.596  1.99E+02       111            3.00E-04 
      9218    86.604  1.84E+02       114            3.01E-04 
      9219    86.612  1.45E+02       117            3.05E-04 
      9220    86.620  8.30E+01       121            3.11E-04 
      9221    86.627  1.43E+02       125            3.05E-04 
      9222    86.635  1.00E+02       130            3.09E-04 
      9223    86.643  9.30E+01       136            3.10E-04 
      9224    86.651  4.70E+01       143            3.14E-04 
      9225    86.658  1.64E+02       152            3.03E-04 
      9226    86.666  1.90E+02       163            3.01E-04 
      9227    86.674  1.53E+02       175            3.04E-04 
      9228    86.682  2.00E+01       191            3.17E-04 
      9229    86.689  7.50E+01       209            3.12E-04 
      9230    86.697  2.21E+02       231            2.98E-04 
      9231    86.705  1.73E+02       257            3.03E-04 
      9232    86.713  1.66E+02       287            3.03E-04 
      9233    86.720  2.29E+02       323            2.98E-04 
      9234    86.728  3.43E+02       364            2.88E-04 
      9235    86.736  2.54E+02       410            2.95E-04 
      9236    86.744  3.62E+02       463            2.86E-04 
      9237    86.752  3.61E+02       522            2.86E-04 
      9238    86.759  4.22E+02       587            2.82E-04 
      9239    86.767  5.00E+02       658            2.76E-04 
      9240    86.775  5.30E+02       735            2.73E-04 
      9241    86.783  8.48E+02       817            2.51E-04 
      9242    86.790  9.31E+02       903            2.46E-04 
      9243    86.798  9.09E+02       992            2.48E-04 
      9244    86.806  1.11E+03  1.08E+03            2.36E-04 
      9245    86.814  1.24E+03  1.17E+03            2.29E-04 
      9246    86.821  1.39E+03  1.26E+03            2.22E-04 
      9247    86.829  1.43E+03  1.35E+03            2.20E-04 
      9248    86.837  1.50E+03  1.43E+03            2.16E-04 
      9249    86.845  1.53E+03  1.50E+03            2.15E-04 
      9250    86.853  1.66E+03  1.55E+03            2.09E-04 
      9251    86.860  1.68E+03  1.60E+03            2.08E-04 
      9252    86.868  1.74E+03  1.63E+03            2.06E-04 
      9253    86.876  1.75E+03  1.64E+03            2.05E-04 
      9254    86.884  1.85E+03  1.63E+03            2.01E-04 
      9255    86.891  1.72E+03  1.61E+03            2.06E-04 
      9256    86.899  1.86E+03  1.57E+03            2.01E-04 
      9257    86.907  1.74E+03  1.51E+03            2.06E-04 
      9258    86.915  1.62E+03  1.45E+03            2.11E-04 
      9259    86.922  1.60E+03  1.37E+03            2.12E-04 
      9260    86.930  1.47E+03  1.29E+03            2.18E-04 
      9261    86.938  1.29E+03  1.20E+03            2.27E-04 
      9262    86.946  1.26E+03  1.11E+03            2.29E-04 
      9263    86.953  1.04E+03  1.02E+03            2.41E-04 
      9264    86.961  9.92E+02       928            2.43E-04 
      9265    86.969  7.45E+02       840            2.59E-04 
      9266    86.977  8.59E+02       757            2.51E-04 
      9267    86.985  5.67E+02       678            2.71E-04 
      9268    86.992  6.01E+02       605            2.69E-04 
      9269    87.000  4.54E+02       538            2.80E-04 
      9270    87.008  3.79E+02       477            2.86E-04 
      9271    87.016  4.80E+02       422            2.78E-04 
      9272    87.023  3.36E+02       373            2.90E-04 
      9273    87.031  2.77E+02       331            2.95E-04 
      9274    87.039  1.86E+02       294            3.03E-04 
      9275    87.047  2.32E+02       262            2.99E-04 
      9276    87.054  2.78E+02       234            2.95E-04 
      9277    87.062  2.69E+02       211            2.96E-04 
      9278    87.070  1.97E+02       191            3.02E-04 
      9279    87.078  2.57E+02       175            2.97E-04 
      9280    87.086  2.85E+02       161            2.94E-04 
      9281    87.093  1.27E+02       150            3.09E-04 
      9282    87.101  2.69E+02       140            2.96E-04 
      9283    87.109  1.91E+02       132            3.03E-04 
      9284    87.117  5.90E+01       126            3.16E-04 
      9285    87.124  1.16E+02       120            3.10E-04 
      9286    87.132  1.36E+02       115            3.08E-04 
      9287    87.140  1.22E+02       111            3.10E-04 
      9288    87.148  5.80E+01       108            3.16E-04 
      9289    87.155  2.09E+02       105            3.02E-04 
      9290    87.163  1.42E+02       103            3.08E-04 
      9291    87.171  9.40E+01       100            3.12E-04 
      9292    87.179 -3.20E+01      98.2            3.25E-04 
      9293    87.186  7.10E+01      96.3            3.15E-04 
      9294    87.194  1.41E+02      94.6            3.08E-04 
      9295    87.202  4.40E+01      93.1            3.18E-04 
      9296    87.210  8.80E+01      91.6            3.13E-04 
      9297    87.218  6.40E+01      90.3            3.16E-04 
      9298    87.225  4.00E+01        89            3.18E-04 
      9299    87.233  1.33E+02      87.8            3.09E-04 
      9300    87.241 -6.00E+01      86.7            3.29E-04 
      9301    87.249  5.30E+01      85.7            3.17E-04 
      9302    87.256  4.10E+01      84.7            3.18E-04 
      9303    87.264  1.22E+02      83.7            3.10E-04 
      9304    87.272  5.80E+01      82.8            3.17E-04 
      9305    87.280  1.36E+02        82            3.09E-04 
      9306    87.287 -3.90E+01      81.2            3.27E-04 
      9307    87.295  6.00E+01      80.4            3.17E-04 
      9308    87.303 -1.40E+01      79.6            3.24E-04 
      9309    87.311 -3.80E+01      78.9            3.27E-04 
      9310    87.319  3.00E+01      78.3            3.20E-04 
      9311    87.326  2.40E+01      77.6            3.20E-04 
      9312    87.334  1.54E+02        77            3.08E-04 
      9313    87.342 -2.40E+01      76.4            3.25E-04 
      9314    87.350  4.60E+01      75.8            3.18E-04 
      9315    87.357 -4.00E+00      75.3            3.23E-04 
      9316    87.365  2.10E+01      74.7            3.21E-04 
      9317    87.373  4.40E+01      74.2            3.19E-04 
      9318    87.381  1.30E+01      73.7            3.22E-04 
      9319    87.388  4.00E+00      73.2            3.23E-04 
      9320    87.396  2.50E+01      72.8            3.21E-04 
      9321    87.404  1.40E+02      72.3            3.09E-04 
      9322    87.412  1.06E+02      71.9            3.13E-04 
      9323    87.420  3.00E+00      71.5            3.23E-04 
      9324    87.427  2.00E+00      71.1            3.23E-04 
      9325    87.435  1.51E+02      70.7            3.08E-04 
      9326    87.443  4.00E+01      70.3            3.19E-04 
      9327    87.451 -1.80E+01      69.9            3.25E-04 
      9328    87.458  8.70E+01      69.6            3.15E-04 
      9329    87.466 -3.20E+01      69.2            3.27E-04 
      9330    87.474  2.80E+01      68.9            3.21E-04 
      9331    87.482  1.35E+02      68.6            3.10E-04 
      9332    87.489 -1.60E+01      68.2            3.25E-04 
      9333    87.497  4.90E+01      67.9            3.19E-04 
      9334    87.505  7.20E+01      67.6            3.16E-04 
      9335    87.513  5.80E+01      67.3            3.18E-04 
      9336    87.520  5.50E+01        67            3.18E-04 
      9337    87.528  5.20E+01      66.8            3.19E-04 
      9338    87.536 -2.50E+01      66.5            3.27E-04 
      9339    87.544  6.00E+00      66.2            3.23E-04 
      9340    87.552  7.70E+01      65.9            3.16E-04 
      9341    87.559  4.00E+00      65.7            3.24E-04 
      9342    87.567  7.40E+01      65.4            3.17E-04 
      9343    87.575  2.20E+01      65.2            3.22E-04 
      9344    87.583  8.40E+01      64.9            3.16E-04 
      9345    87.590  9.90E+01      64.7            3.14E-04 
      9346    87.598  1.80E+01      64.5            3.22E-04 
      9347    87.606  7.00E+01      64.2            3.17E-04 
      9348    87.614  1.00E+01        64            3.23E-04 
      9349    87.621  1.01E+02      63.8            3.14E-04 
      9350    87.629  3.00E+00      63.6            3.24E-04 
      9351    87.637  1.00E+00      63.3            3.24E-04 
      9352    87.645  6.30E+01      63.1            3.18E-04 
      9353    87.653 -2.00E+00      62.9            3.25E-04 
      9354    87.660  5.80E+01      62.7            3.19E-04 
      9355    87.668  2.00E+00      62.5            3.25E-04 
      9356    87.676 -4.80E+01      62.3            3.30E-04 
      9357    87.684 -3.80E+01      62.1            3.29E-04 
      9358    87.691  4.30E+01      61.9            3.20E-04 
      9359    87.699  8.80E+01      61.7            3.16E-04 
      9360    87.707  6.40E+01      61.5            3.18E-04 
      9361    87.715 -1.50E+01      61.4            3.27E-04 
      9362    87.722  6.00E+00      61.2            3.24E-04 
      9363    87.730  3.70E+01        61            3.21E-04 
      9364    87.738  4.60E+01      60.8            3.20E-04 
      9365    87.746  1.14E+02      60.6            3.14E-04 
      9366    87.753 -3.70E+01      60.5            3.29E-04 
      9367    87.761 -1.20E+01      60.3            3.27E-04 
      9368    87.769 -1.80E+01      60.1            3.27E-04 
      9369    87.777  1.28E+02        60            3.12E-04 
      9370    87.785  1.19E+02      59.8            3.13E-04 
      9371    87.792  7.50E+01      59.6            3.18E-04 
      9372    87.800  5.10E+01      59.5            3.20E-04 
      9373    87.808  4.40E+01      59.3            3.21E-04 
      9374    87.816  3.80E+01      59.2            3.22E-04 
      9375    87.823 -2.80E+01        59            3.29E-04 
      9376    87.831  5.40E+01      58.8            3.20E-04 
      9377    87.839 -3.40E+01      58.7            3.29E-04 
      9378    87.847  5.90E+01      58.5            3.20E-04 
      9379    87.854 -4.70E+01      58.4            3.31E-04 
      9380    87.862  8.60E+01      58.2            3.17E-04 
      9381    87.870  6.20E+01      58.1            3.19E-04 
      9382    87.878 -4.00E+01      58.1            3.30E-04 
      9383    87.886 -1.40E+01        58            3.27E-04 
      9384    87.893  1.40E+01      57.9            3.25E-04 
      9385    87.901 -4.50E+01      57.7            3.31E-04 
      9386    87.909 -6.00E+01      57.6            3.33E-04 
      9387    87.917 -3.90E+01      57.4            3.30E-04 
      9388    87.924  5.20E+01      57.3            3.21E-04 
      9389    87.932  1.60E+01      57.2            3.25E-04 
      9390    87.940 -8.00E+00        57            3.27E-04 
      9391    87.948  1.28E+02      56.9            3.13E-04 
      9392    87.955  6.60E+01      56.8            3.20E-04 
      9393    87.963 -4.70E+01      56.7            3.32E-04 
      9394    87.971  1.50E+01      56.5            3.25E-04 
      9395    87.979 -1.40E+01      56.4            3.28E-04 
      9396    87.986  5.10E+01      56.3            3.21E-04 
      9397    87.994  6.30E+01      56.2            3.20E-04 
      9398    88.002  1.11E+02        56            3.15E-04 
      9399    88.010  1.77E+02      55.9            3.09E-04 
      9400    88.018  6.10E+01      55.8            3.20E-04 
      9401    88.025  1.03E+02      55.7            3.16E-04 
      9402    88.033  5.50E+01      55.6            3.21E-04 
      9403    88.041  1.40E+01      55.4            3.25E-04 
      9404    88.049  5.80E+01      55.3            3.21E-04 
      9405    88.056  6.00E+01      55.2            3.21E-04 
      9406    88.064 -1.60E+01      55.1            3.29E-04 
      9407    88.072 -8.00E+00        55            3.28E-04 
      9408    88.080  2.90E+01      54.9            3.24E-04 
      9409    88.087 -4.20E+01      54.8            3.32E-04 
      9410    88.095  6.70E+01      54.7            3.20E-04 
      9411    88.103  9.10E+01      54.6            3.18E-04 
      9412    88.111  9.50E+01      54.5            3.18E-04 
      9413    88.119  8.20E+01      54.4            3.19E-04 
      9414    88.126 -5.00E+00      54.3            3.28E-04 
      9415    88.134  4.10E+01      54.2            3.23E-04 
      9416    88.142  0.00E+00      54.1            3.27E-04 
      9417    88.150  3.40E+01        54            3.24E-04 
      9418    88.157 -1.90E+01      53.9            3.30E-04 
      9419    88.165 -3.30E+01      53.9            3.31E-04 
      9420    88.173  3.00E+00      54.4            3.27E-04 
      9421    88.181  3.70E+01      54.3            3.24E-04 
      9422    88.188 -9.00E+00      54.3            3.29E-04 
      9423    88.196  1.40E+01      54.2            3.26E-04 
      9424    88.204 -6.40E+01      54.2            3.35E-04 
      9425    88.212  9.70E+01      54.1            3.18E-04 
      9426    88.220 -5.80E+01      54.1            3.34E-04 
      9427    88.227  1.33E+02      54.1            3.14E-04 
      9428    88.235  8.00E+01      54.1            3.20E-04 
      9429    88.243 -4.00E+01      54.1            3.32E-04 
      9430    88.251  6.50E+01      54.1            3.21E-04 
      9431    88.258  8.00E+01      54.1            3.20E-04 
      9432    88.266  3.50E+01      54.1            3.25E-04 
      9433    88.274  3.00E+01      54.2            3.25E-04 
      9434    88.282 -7.00E+00      54.3            3.29E-04 
      9435    88.289  6.10E+01      54.4            3.22E-04 
      9436    88.297  1.08E+02      54.6            3.17E-04 
      9437    88.305  6.60E+01      54.8            3.21E-04 
      9438    88.313  5.80E+01      55.1            3.22E-04 
      9439    88.320  1.05E+02      55.4            3.18E-04 
      9440    88.328  6.90E+01      55.9            3.21E-04 
      9441    88.336  1.40E+01      56.4            3.27E-04 
      9442    88.344  3.50E+01      57.1            3.25E-04 
      9443    88.352 -8.50E+01        58            3.38E-04 
      9444    88.359 -1.70E+01        59            3.31E-04 
      9445    88.367  7.80E+01      60.3            3.21E-04 
      9446    88.375  6.00E+00      61.8            3.28E-04 
      9447    88.383  8.10E+01      63.5            3.20E-04 
      9448    88.390  9.20E+01      65.6            3.19E-04 
      9449    88.398  9.10E+01        68            3.19E-04 
      9450    88.406  7.50E+01      70.9            3.21E-04 
      9451    88.414  5.40E+01      74.1            3.23E-04 
      9452    88.421  6.60E+01      77.7            3.22E-04 
      9453    88.429  3.30E+01      81.8            3.26E-04 
      9454    88.437  1.77E+02      86.3            3.11E-04 
      9455    88.445  5.70E+01      91.3            3.23E-04 
      9456    88.453  9.90E+01      96.8            3.19E-04 
      9457    88.460  9.80E+01       103            3.19E-04 
      9458    88.468  5.30E+01       109            3.24E-04 
      9459    88.476  1.30E+02       116            3.16E-04 
      9460    88.484  1.49E+02       123            3.14E-04 
      9461    88.491  1.76E+02       130            3.12E-04 
      9462    88.499  2.08E+02       137            3.09E-04 
      9463    88.507  1.73E+02       144            3.12E-04 
      9464    88.515  2.46E+02       152            3.05E-04 
      9465    88.522  2.53E+02       159            3.04E-04 
      9466    88.530  1.94E+02       164            3.10E-04 
      9467    88.538  3.31E+02       170            2.97E-04 
      9468    88.546  2.73E+02       176            3.03E-04 
      9469    88.553  2.19E+02       181            3.08E-04 
      9470    88.561  2.68E+02       186            3.03E-04 
      9471    88.569  1.79E+02       190            3.12E-04 
      9472    88.577  1.97E+02       193            3.10E-04 
      9473    88.585  2.40E+02       195            3.06E-04 
      9474    88.592  2.16E+02       197            3.08E-04 
      9475    88.600  2.72E+02       198            3.03E-04 
      9476    88.608  3.13E+02       199            2.99E-04 
      9477    88.616  1.32E+02       200            3.17E-04 
      9478    88.623  2.56E+02       200            3.05E-04 
      9479    88.631  2.59E+02       200            3.04E-04 
      9480    88.639  2.38E+02       200            3.06E-04 
      9481    88.647  2.86E+02       200            3.02E-04 
      9482    88.654  2.91E+02       199            3.02E-04 
      9483    88.662  2.40E+02       198            3.06E-04 
      9484    88.670  2.02E+02       197            3.10E-04 
      9485    88.678  2.04E+02       196            3.10E-04 
      9486    88.686  2.80E+02       194            3.03E-04 
      9487    88.693  2.75E+02       192            3.03E-04 
      9488    88.701  1.85E+02       190            3.12E-04 
      9489    88.709  2.48E+02       187            3.06E-04 
      9490    88.717  2.10E+02       184            3.09E-04 
      9491    88.724  2.05E+02       180            3.10E-04 
      9492    88.732  1.99E+02       177            3.11E-04 
      9493    88.740  2.82E+02       173            3.03E-04 
      9494    88.748  2.87E+02       168            3.02E-04 
      9495    88.755  2.16E+02       163            3.09E-04 
      9496    88.763  1.92E+02       158            3.11E-04 
      9497    88.771  2.19E+02       153            3.09E-04 
      9498    88.779  2.02E+02       148            3.11E-04 
      9499    88.787  6.70E+01       142            3.24E-04 
      9500    88.794  9.70E+01       136            3.21E-04 
      9501    88.802  1.37E+02       131            3.17E-04 
      9502    88.810  1.87E+02       125            3.12E-04 
      9503    88.818  8.00E+01       119            3.23E-04 
      9504    88.825  1.17E+02       114            3.19E-04 
      9505    88.833  9.30E+01       108            3.22E-04 
      9506    88.841  1.14E+02       103            3.20E-04 
      9507    88.849  6.30E+01      97.6            3.25E-04 
      9508    88.856  1.08E+02      92.6            3.20E-04 
      9509    88.864  1.75E+02        88            3.14E-04 
      9510    88.872  3.40E+01      83.5            3.28E-04 
      9511    88.880  7.60E+01      79.4            3.24E-04 
      9512    88.887  4.70E+01      75.5            3.27E-04 
      9513    88.895  1.36E+02      71.9            3.18E-04 
      9514    88.903  1.24E+02      68.5            3.19E-04 
      9515    88.911  1.09E+02      65.5            3.21E-04 
      9516    88.919  8.10E+01      62.7            3.23E-04 
      9517    88.926  4.90E+01      60.2            3.27E-04 
      9518    88.934  9.20E+01      57.9            3.22E-04 
      9519    88.942  7.70E+01      55.8            3.24E-04 
      9520    88.950  8.00E+00        54            3.32E-04 
      9521    88.957  7.10E+01      52.4            3.25E-04 
      9522    88.965  8.30E+01      50.9            3.24E-04 
      9523    88.973  7.00E+00      49.6            3.32E-04 
      9524    88.981  7.80E+01      48.5            3.24E-04 
      9525    88.988  2.80E+01      47.5            3.30E-04 
      9526    88.996  5.20E+01      46.7            3.27E-04 
      9527    89.004  2.00E+00      45.9            3.32E-04 
      9528    89.012 -3.90E+01      45.2            3.37E-04 
      9529    89.020  8.80E+01      44.7            3.23E-04 
      9530    89.027  6.50E+01      44.2            3.26E-04 
      9531    89.035  8.10E+01      43.8            3.24E-04 
      9532    89.043  3.50E+01      43.4            3.29E-04 
      9533    89.051 -1.50E+01      43.1            3.35E-04 
      9534    89.058 -3.30E+01      42.8            3.37E-04 
      9535    89.066 -2.40E+01      42.6            3.36E-04 
      9536    89.074  9.20E+01      42.3            3.23E-04 
      9537    89.082 -9.00E+00      42.2            3.34E-04 
      9538    89.089  2.80E+01        42            3.30E-04 
      9539    89.097  3.50E+01      41.9            3.29E-04 
      9540    89.105  1.16E+02      41.8            3.21E-04 
      9541    89.113  1.41E+02      41.7            3.18E-04 
      9542    89.120 -3.80E+01      41.6            3.38E-04 
      9543    89.128  3.90E+01      41.5            3.29E-04 
      9544    89.136  1.90E+01      41.4            3.31E-04 
      9545    89.144  7.30E+01      41.4            3.26E-04 
      9546    89.152  1.00E+02      41.4            3.23E-04 
      9547    89.159  1.82E+02      41.3            3.15E-04 
      9548    89.167 -1.30E+01      41.3            3.35E-04 
      9549    89.175 -3.00E+00      41.3            3.34E-04 
      9550    89.183  1.57E+02      41.4            3.17E-04 
      9551    89.190 -5.00E+00      41.4            3.34E-04 
      9552    89.198  9.60E+01      41.4            3.24E-04 
      9553    89.206 -3.20E+01      41.5            3.38E-04 
      9554    89.214  4.70E+01      41.6            3.29E-04 
      9555    89.221  2.00E+01      41.7            3.32E-04 
      9556    89.229  1.87E+02      41.8            3.14E-04 
      9557    89.237  9.20E+01        42            3.24E-04 
      9558    89.245  2.80E+01      42.2            3.31E-04 
      9559    89.253 -8.00E+00      42.5            3.35E-04 
      9560    89.260 -1.20E+01      42.8            3.36E-04 
      9561    89.268  8.00E+01      43.3            3.26E-04 
      9562    89.276  2.10E+01      43.8            3.32E-04 
      9563    89.284  7.40E+01      44.4            3.26E-04 
      9564    89.291  2.40E+01      45.2            3.32E-04 
      9565    89.299  3.50E+01      46.1            3.31E-04 
      9566    89.307  3.00E+00      47.3            3.34E-04 
      9567    89.315  1.00E+02      48.8            3.24E-04 
      9568    89.322  5.00E+01      50.5            3.29E-04 
      9569    89.330  1.90E+01      52.6            3.33E-04 
      9570    89.338  4.30E+01      55.1            3.30E-04 
      9571    89.346  1.32E+02      58.1            3.21E-04 
      9572    89.353  5.30E+01      61.6            3.29E-04 
      9573    89.361  1.13E+02      65.7            3.23E-04 
      9574    89.369  4.70E+01      70.5            3.30E-04 
      9575    89.377  4.00E+01        76            3.31E-04 
      9576    89.385  1.03E+02      82.3            3.24E-04 
      9577    89.392  4.10E+01      89.3            3.31E-04 
      9578    89.400  9.40E+01      97.3            3.25E-04 
      9579    89.408  5.30E+01       106            3.29E-04 
      9580    89.416  4.80E+01       116            3.30E-04 
      9581    89.423  1.49E+02       126            3.19E-04 
      9582    89.431  1.04E+02       137            3.24E-04 
      9583    89.439  2.20E+01       149            3.33E-04 
      9584    89.447  1.70E+01       161            3.33E-04 
      9585    89.454  9.30E+01       173            3.25E-04 
      9586    89.462  8.10E+01       186            3.27E-04 
      9587    89.470  3.02E+02       198            3.05E-04 
      9588    89.478  1.80E+02       210            3.17E-04 
      9589    89.486  1.31E+02       221            3.22E-04 
      9590    89.493  1.99E+02       232            3.15E-04 
      9591    89.501  1.56E+02       241            3.19E-04 
      9592    89.509  2.23E+02       248            3.12E-04 
      9593    89.517  2.56E+02       254            3.09E-04 
      9594    89.524  3.28E+02       257            3.03E-04 
      9595    89.532  2.24E+02       259            3.12E-04 
      9596    89.540  2.94E+02       257            3.06E-04 
      9597    89.548  2.37E+02       254            3.11E-04 
      9598    89.555  1.34E+02       248            3.22E-04 
      9599    89.563  1.86E+02       241            3.16E-04 
      9600    89.571  2.16E+02       232            3.13E-04 
      9601    89.579  3.00E+02       221            3.05E-04 
      9602    89.587  1.00E+02       210            3.25E-04 
      9603    89.594  1.61E+02       198            3.19E-04 
      9604    89.602  9.00E+01       185            3.27E-04 
      9605    89.610  6.90E+01       172            3.29E-04 
      9606    89.618  5.50E+01       160            3.30E-04 
      9607    89.625  1.01E+02       147            3.25E-04 
      9608    89.633  3.90E+01       135            3.32E-04 
      9609    89.641  1.51E+02       124            3.20E-04 
      9610    89.649  8.00E+01       113            3.28E-04 
      9611    89.656  6.50E+01       103            3.30E-04 
      9612    89.664  1.26E+02      94.4            3.23E-04 
      9613    89.672  1.47E+02      86.2            3.21E-04 
      9614    89.680  1.08E+02      78.8            3.25E-04 
      9615    89.687  7.60E+01      72.2            3.29E-04 
      9616    89.695  1.18E+02      66.4            3.24E-04 
      9617    89.703  2.80E+01      61.3            3.34E-04 
      9618    89.711  1.19E+02      56.9            3.24E-04 
      9619    89.719  9.40E+01      53.1            3.27E-04 
      9620    89.726  8.20E+01      49.8            3.28E-04 
      9621    89.734  1.25E+02        47            3.24E-04 
      9622    89.742  2.90E+01      44.7            3.34E-04 
      9623    89.750  6.60E+01      42.7            3.30E-04 
      9624    89.757  4.70E+01        41            3.32E-04 
      9625    89.765  1.00E+01      39.6            3.36E-04 
      9626    89.773  9.90E+01      38.4            3.27E-04 
      9627    89.781  1.30E+02      37.4            3.23E-04 
      9628    89.788  9.60E+01      36.6            3.27E-04 
      9629    89.796  4.60E+01      35.8            3.32E-04 
      9630    89.804  1.16E+02      35.2            3.25E-04 
      9631    89.812  4.30E+01      34.7            3.33E-04 
      9632    89.820  2.10E+01      34.2            3.35E-04 
      9633    89.827  5.90E+01      33.8            3.31E-04 
      9634    89.835  4.30E+01      33.4            3.33E-04 
      9635    89.843  7.80E+01      33.1            3.29E-04 
      9636    89.851  5.50E+01      32.8            3.32E-04 
      9637    89.858  1.70E+01      32.5            3.36E-04 
      9638    89.866  2.70E+01      32.5            3.35E-04 
      9639    89.874 -5.00E+00      32.3            3.39E-04 
      9640    89.882  2.40E+01      32.1            3.35E-04 
      9641    89.889  1.10E+02      31.9            3.26E-04 
      9642    89.897  1.04E+02      31.7            3.27E-04 
      9643    89.905  4.70E+01      31.6            3.33E-04 
      9644    89.913  3.90E+01      31.5            3.34E-04 
      9645    89.920  7.00E+00      31.5            3.38E-04 
      9646    89.928  8.70E+01      31.4            3.29E-04 
      9647    89.936  1.30E+01      31.4            3.37E-04 
      9648    89.944  1.35E+02      31.4            3.24E-04 
      9649    89.952  1.36E+02      31.5            3.24E-04 
      9650    89.959  1.30E+01      31.6            3.37E-04 
      9651    89.967  0.00E+00      31.8            3.39E-04 
      9652    89.975  5.40E+01      32.1            3.33E-04 



# The following lines are used to test the character set of files sent by
# network email or other means. They are not part of the CIF data set.
# abcdefghijklmnopqrstuvwxyzABCDEFGHIJKLMNOPQRSTUVWXYZ0123456789
# !@#$%^&*()_+{}:"~<>?|\-=[];'`,./







_exptl_crystal_density_diffrn
2.1570(10)
_refine_ls_goodness_of_fit_all
1.95
_chemical_formula_iupac
'Al P O4'
_chemical_formula_structural
'Al P O4'
_cell_formula_units_Z
2
_chemical_formula_moiety
'Al P O4'
_cell_length_a
5.0976(3)
_cell_length_b
5.0976(3)
_cell_length_c
8.3441(4)
_diffrn_radiation_type
'CuK\a~1~'
_symmetry_space_group_name_Hall
'P 6c -2c'
_computing_molecular_graphics
'ORTEP-3 (Farrugia, 1997) and  WATOMS (Dowty, 1994)'
_chemical_formula_weight
121.95
_computing_structure_refinement
'GSAS'
_refine_ls_number_constraints
22
_exptl_absorpt_correction_type
none
_refine_ls_weighting_scheme
calc
_symmetry_space_group_name_H-M
'P 63 m c'
_cell_angle_gamma
120.0
_cell_measurement_temperature
593
_computing_data_reduction
'GSAS'
_computing_cell_refinement
'GSAS (Larson & von Dreele, 1994)'
_computing_publication_material
'WINWORD97'
_refine_ls_shift/su_max
.01
_diffrn_radiation_monochromator
'primary Ge(111) monochromator'
_chemical_name_systematic
;
aluminium phosphate
;
_computing_structure_solution
'GSAS'
_cell_volume
187.77(2)
_refine_ls_structure_factor_coef
Inet
_refine_ls_hydrogen_treatment
none
_exptl_crystal_F_000
120
_symmetry_cell_setting
hexagonal
_diffrn_ambient_temperature
593
_exptl_absorpt_coefficient_mu
8.0
_diffrn_radiation_wavelength
1.54056
_computing_data_collection
'DIFFRAC-AT (Version 3.0; Siemens, unpublished)'
_refine_ls_extinction_method
none
_exptl_crystal_density_method
'not measured'
_diffrn_measurement_device_type
'Siemens D5000'
_cell_angle_alpha
90.0
_refine_ls_number_parameters
41
_chemical_formula_sum
'Al O4 P'
_refine_ls_matrix_type
fullcycle
_cell_angle_beta
90.0
loop_
_symmetry_equiv_pos_site_id
_symmetry_equiv_pos_as_xyz
1 x,y,z
2 x-y,x,1/2+z
3 -y,x-y,z
4 -x,-y,1/2+z
5 y-x,-x,z
6 y,y-x,1/2+z
7 y-x,y,z
8 -x,y-x,1/2+z
9 -y,-x,z
10 x-y,-y,1/2+z
11 x,x-y,z
12 y,x,1/2+z

loop_
_atom_type_symbol
_atom_type_description
_atom_type_scat_dispersion_real
_atom_type_scat_dispersion_imag
_atom_type_scat_source
Al Al .204 .246 
;International Tables for Crystallography (Vol. IV)
;
V V .283 .434 
;International Tables for Crystallography (Vol. IV)
;
O O .047 .032 
;International Tables for Crystallography (Vol. IV)
;

loop_
_atom_site_label
_atom_site_fract_x
_atom_site_fract_y
_atom_site_fract_z
_atom_site_u_iso_or_equiv
_atom_site_thermal_displace_type
_atom_site_occupancy
_atom_site_type_symbol
Al .33333 .66667 .06250 .070(10) Uani 1 Al
P .33333 .66667 .4365(4) .050(10) Uani 1 P
O1 .33333 .66667 .2616(5) .120(10) Uani 1 O
O2 .5109(3) .4891(3) -.0046(6) .140(10) Uani 1 O

loop_
_atom_site_aniso_label
_atom_site_aniso_u_11
_atom_site_aniso_u_22
_atom_site_aniso_u_33
_atom_site_aniso_u_12
_atom_site_aniso_u_13
_atom_site_aniso_u_23
Al .069(5) .069(5) .065(8) .035(3) 0 0
P .047(3) .047(3) .048(6) .024(2) 0 0
O1 .163(5) .163(5) .036(5) .081(3) 0 0
O2 .165(4) .165(4) .136(5) .129(4) .021(2) -.021(2)

loop_
_geom_bond_atom_site_label_1
_geom_bond_atom_site_label_2
_geom_bond_site_symmetry_2
_geom_bond_distance
_geom_bond_publ_flag
Al O1 . 1.662(5) no
Al O2 5_565 1.665(3) no
Al O2 . 1.665(3) no
Al O2 3_665 1.665(3) no
O1 O2 5_565 2.719(6) no
O1 O2 . 2.719(6) no
O1 O2 3_665 2.719(6) no
O2 O2 5_565 2.715(2) no
O2 O2 3_665 2.715(2) no
P O1 . 1.459(6) no
P O2 2_555 1.461(3) no
P O2 4_665 1.461(3) no
P O2 6_565 1.461(3) no
O1 O2 2_555 2.387(6) no
O1 O2 4_665 2.387(6) no
O1 O2 6_565 2.387(6) no
O2 O2 3_655 2.382(2) no
O2 O2 5_665 2.382(2) no
Al P . 3.121(4) no
Al P 2_554 3.125(2) no
Al P 2_654 3.125(2) no
Al P 2_664 3.125(2) no

loop_
_geom_angle_atom_site_label_1
_geom_angle_atom_site_label_2
_geom_angle_atom_site_label_3
_geom_angle_site_symmetry_1
_geom_angle_site_symmetry_3
_geom_angle
_geom_angle_publ_flag
O1 Al O2 . 5_565 109.6(2) no
O1 Al O2 . . 109.6(2) no
O1 Al O2 . 3_665 109.6(2) no
O2 Al O2 5_565 . 109.3(2) no
O2 Al O2 5_565 3_665 109.3(2) no
O2 Al O2 . 3_665 109.3(2) no
O1 P O2 . 2_555 109.7(3) no
O1 P O2 . 4_665 109.7(3) no
O1 P O2 . 6_565 109.7(3) no
O2 P O2 2_555 4_665 109.3(2) no
O2 P O2 2_555 6_565 109.3(2) no
O2 P O2 4_665 6_565 109.3(2) no
P O1 Al . . 180.0(4) no
P O2 Al 2_654 1_555 180.0(5) no



# powder data simulated using PLATON:

data_I_simulated_1.54056

_publcif_pd_cifplot 'simulated 2021-03-25'

