data_I

_pd_block_id      znvoprofile

loop_
      _pd_proc_point_id                           
      _pd_proc_2theta_corrected            
      _pd_proc_energy_incident            
      _pd_proc_d_spacing                  
      _pd_proc_intensity_net                     
      _pd_calc_intensity_net                     
      _pd_proc_ls_weight                        
1    10.00  .  .    153    143  12.369 
2    10.02  .  .    139    142  11.79  
3    10.04  .  .    174    142  13.191 
4    10.06  .  .    151    142  12.288 
5    10.08  .  .    161    142  12.689 
6    10.10  .  .    136    141  11.662 
7    10.12  .  .    127    141  11.269 
8    10.14  .  .    156    141  12.49  
9    10.16  .  .    153    141  12.369 
10   10.18  .  .    144    141  12     
11   10.20  .  .    134    140  11.576 
12   10.22  .  .    163    140  12.767 
13   10.24  .  .    169    140  13     
14   10.26  .  .    144    140  12     
15   10.28  .  .    134    139  11.576 
16   10.30  .  .    146    139  12.083 
17   10.32  .  .    129    139  11.358 
18   10.34  .  .    169    139  13     
19   10.36  .  .    166    138  12.884 
20   10.38  .  .    144    138  12     
21   10.40  .  .    141    138  11.874 
22   10.42  .  .    161    138  12.689 
23   10.44  .  .    151    137  12.288 
24   10.46  .  .    144    137  12     
25   10.48  .  .    144    137  12     
26   10.50  .  .    134    137  11.576 
27   10.52  .  .    163    137  12.767 
28   10.54  .  .    153    136  12.369 
29   10.56  .  .    169    136  13     
30   10.58  .  .    134    136  11.576 
31   10.60  .  .    176    136  13.266 
32   10.62  .  .    148    135  12.166 
33   10.64  .  .    144    135  12     
34   10.66  .  .    156    135  12.49  
35   10.68  .  .    166    135  12.884 
36   10.70  .  .    156    134  12.49  
37   10.72  .  .    169    134  13     
38   10.74  .  .    153    134  12.369 
39   10.76  .  .    123    134  11.091 
40   10.78  .  .    134    134  11.576 
41   10.80  .  .    153    133  12.369 
42   10.82  .  .    127    133  11.269 
43   10.84  .  .    136    133  11.662 
44   10.86  .  .    141    133  11.874 
45   10.88  .  .    153    132  12.369 
46   10.90  .  .    144    132  12     
47   10.92  .  .    169    132  13     
48   10.94  .  .    127    132  11.269 
49   10.96  .  .    156    132  12.49  
50   10.98  .  .    136    131  11.662 
51   11.00  .  .    139    131  11.79  
52   11.02  .  .    161    131  12.689 
53   11.04  .  .    144    131  12     
54   11.06  .  .    144    130  12     
55   11.08  .  .    127    131  11.269 
56   11.10  .  .    141    131  11.874 
57   11.12  .  .    151    131  12.288 
58   11.14  .  .    125    131  11.18  
59   11.16  .  .    161    131  12.689 
60   11.18  .  .    141    131  11.874 
61   11.20  .  .    146    131  12.083 
62   11.22  .  .    139    131  11.79  
63   11.24  .  .    125    131  11.18  
64   11.26  .  .    144    131  12     
65   11.28  .  .    127    131  11.269 
66   11.30  .  .    127    131  11.269 
67   11.32  .  .    114    131  10.677 
68   11.34  .  .    129    131  11.358 
69   11.36  .  .    153    131  12.369 
70   11.38  .  .    134    131  11.576 
71   11.40  .  .    116    132  10.77  
72   11.42  .  .    123    132  11.091 
73   11.44  .  .    136    133  11.662 
74   11.46  .  .    141    133  11.874 
75   11.48  .  .    129    134  11.358 
76   11.50  .  .    114    135  10.677 
77   11.52  .  .    129    136  11.358 
78   11.54  .  .    144    137  12     
79   11.56  .  .    153    139  12.369 
80   11.58  .  .    144    141  12     
81   11.60  .  .    153    144  12.369 
82   11.62  .  .    134    147  11.576 
83   11.64  .  .    139    151  11.79  
84   11.66  .  .    182    156  13.491 
85   11.68  .  .    153    162  12.369 
86   11.70  .  .    184    170  13.565 
87   11.72  .  .    163    180  12.767 
88   11.74  .  .    184    193  13.565 
89   11.76  .  .    201    210  14.177 
90   11.78  .  .    213    232  14.595 
91   11.80  .  .    243    260  15.588 
92   11.82  .  .    243    296  15.588 
93   11.84  .  .    309    342  17.578 
94   11.86  .  .    334    400  18.276 
95   11.88  .  .    416    470  20.396 
96   11.90  .  .    479    552  21.886 
97   11.92  .  .    615    640  24.799 
98   11.94  .  .    645    722  25.397 
99   11.96  .  .    670    785  25.884 
100  11.98  .  .    707    806  26.589 
101  12.00  .  .    595    652  24.393 
102  12.02  .  .    466    456  21.587 
103  12.04  .  .    306    288  17.493 
104  12.06  .  .    252    200  15.875 
105  12.08  .  .    204    161  14.283 
106  12.10  .  .    169    142  13     
107  12.12  .  .    156    133  12.49  
108  12.14  .  .    136    128  11.662 
109  12.16  .  .    156    125  12.49  
110  12.18  .  .    136    123  11.662 
111  12.20  .  .    141    121  11.874 
112  12.22  .  .    118    120  10.863 
113  12.24  .  .    112    120  10.583 
114  12.26  .  .    125    119  11.18  
115  12.28  .  .    139    119  11.79  
116  12.30  .  .    146    118  12.083 
117  12.32  .  .    129    118  11.358 
118  12.34  .  .    118    118  10.863 
119  12.36  .  .    151    117  12.288 
120  12.38  .  .    121    117  11     
121  12.40  .  .    136    117  11.662 
122  12.42  .  .    158    117  12.57  
123  12.44  .  .    125    116  11.18  
124  12.46  .  .    134    116  11.576 
125  12.48  .  .    129    116  11.358 
126  12.50  .  .    134    116  11.576 
127  12.52  .  .    134    116  11.576 
128  12.54  .  .    118    115  10.863 
129  12.56  .  .    127    115  11.269 
130  12.58  .  .    123    115  11.091 
131  12.60  .  .    125    115  11.18  
132  12.62  .  .    127    115  11.269 
133  12.64  .  .    121    114  11     
134  12.66  .  .    114    114  10.677 
135  12.68  .  .    116    114  10.77  
136  12.70  .  .    108    114  10.392 
137  12.72  .  .    108    114  10.392 
138  12.74  .  .    106    113  10.296 
139  12.76  .  .    110    113  10.488 
140  12.78  .  .    136    113  11.662 
141  12.80  .  .    98     113  9.899  
142  12.82  .  .    129    113  11.358 
143  12.84  .  .    121    113  11     
144  12.86  .  .    116    112  10.77  
145  12.88  .  .    112    112  10.583 
146  12.90  .  .    134    112  11.576 
147  12.92  .  .    118    112  10.863 
148  12.94  .  .    118    112  10.863 
149  12.96  .  .    116    111  10.77  
150  12.98  .  .    110    111  10.488 
151  13.00  .  .    104    111  10.198 
152  13.02  .  .    112    111  10.583 
153  13.04  .  .    112    111  10.583 
154  13.06  .  .    108    111  10.392 
155  13.08  .  .    108    110  10.392 
156  13.10  .  .    100    110  10     
157  13.12  .  .    110    110  10.488 
158  13.14  .  .    100    110  10     
159  13.16  .  .    100    110  10     
160  13.18  .  .    94     109  9.695  
161  13.20  .  .    114    109  10.677 
162  13.22  .  .    106    109  10.296 
163  13.24  .  .    123    109  11.091 
164  13.26  .  .    102    109  10.1   
165  13.28  .  .    127    109  11.269 
166  13.30  .  .    112    108  10.583 
167  13.32  .  .    121    108  11     
168  13.34  .  .    121    108  11     
169  13.36  .  .    132    108  11.489 
170  13.38  .  .    110    108  10.488 
171  13.40  .  .    112    108  10.583 
172  13.42  .  .    94     107  9.695  
173  13.44  .  .    112    107  10.583 
174  13.46  .  .    121    107  11     
175  13.48  .  .    110    107  10.488 
176  13.50  .  .    106    107  10.296 
177  13.52  .  .    104    107  10.198 
178  13.54  .  .    121    106  11     
179  13.56  .  .    96     106  9.798  
180  13.58  .  .    112    106  10.583 
181  13.60  .  .    106    106  10.296 
182  13.62  .  .    114    106  10.677 
183  13.64  .  .    121    106  11     
184  13.66  .  .    106    105  10.296 
185  13.68  .  .    132    105  11.489 
186  13.70  .  .    90     105  9.487  
187  13.72  .  .    98     105  9.899  
188  13.74  .  .    96     105  9.798  
189  13.76  .  .    98     105  9.899  
190  13.78  .  .    114    104  10.677 
191  13.80  .  .    108    104  10.392 
192  13.82  .  .    98     104  9.899  
193  13.84  .  .    102    104  10.1   
194  13.86  .  .    102    104  10.1   
195  13.88  .  .    102    104  10.1   
196  13.90  .  .    100    103  10     
197  13.92  .  .    123    103  11.091 
198  13.94  .  .    102    103  10.1   
199  13.96  .  .    104    103  10.198 
200  13.98  .  .    106    103  10.296 
201  14.00  .  .    116    106  10.77  
202  14.02  .  .    108    106  10.392 
203  14.04  .  .    104    108  10.198 
204  14.06  .  .    110    109  10.488 
205  14.08  .  .    121    109  11     
206  14.10  .  .    129    109  11.358 
207  14.12  .  .    118    110  10.863 
208  14.14  .  .    100    110  10     
209  14.16  .  .    121    111  11     
210  14.18  .  .    108    111  10.392 
211  14.20  .  .    123    112  11.091 
212  14.22  .  .    108    112  10.392 
213  14.24  .  .    125    113  11.18  
214  14.26  .  .    106    114  10.296 
215  14.28  .  .    123    115  11.091 
216  14.30  .  .    127    116  11.269 
217  14.32  .  .    136    118  11.662 
218  14.34  .  .    121    119  11     
219  14.36  .  .    125    121  11.18  
220  14.38  .  .    121    123  11     
221  14.40  .  .    114    125  10.677 
222  14.42  .  .    123    128  11.091 
223  14.44  .  .    136    131  11.662 
224  14.46  .  .    118    134  10.863 
225  14.48  .  .    136    138  11.662 
226  14.50  .  .    132    142  11.489 
227  14.52  .  .    118    148  10.863 
228  14.54  .  .    153    154  12.369 
229  14.56  .  .    163    162  12.767 
230  14.58  .  .    166    170  12.884 
231  14.60  .  .    174    181  13.191 
232  14.62  .  .    182    194  13.491 
233  14.64  .  .    187    209  13.675 
234  14.66  .  .    216    227  14.697 
235  14.68  .  .    278    250  16.673 
236  14.70  .  .    268    278  16.371 
237  14.72  .  .    295    313  17.176 
238  14.74  .  .    324    356  18     
239  14.76  .  .    376    411  19.391 
240  14.78  .  .    457    480  21.378 
241  14.80  .  .    585    568  24.187 
242  14.82  .  .    723    682  26.889 
243  14.84  .  .    795    826  28.196 
244  14.86  .  .    1036   1009 32.187 
245  14.88  .  .    1303   1236 36.097 
246  14.90  .  .    1616   1512 40.2   
247  14.92  .  .    2034   1827 45.1   
248  14.94  .  .    2460   2160 49.598 
249  14.96  .  .    2621   2467 51.196 
250  14.98  .  .    2714   2693 52.096 
251  15.00  .  .    2735   2736 52.297 
252  15.02  .  .    2237   2372 47.297 
253  15.04  .  .    1600   1849 40     
254  15.06  .  .    1102   1288 33.196 
255  15.08  .  .    712    852  26.683 
256  15.10  .  .    432    571  20.785 
257  15.12  .  .    309    401  17.578 
258  15.14  .  .    234    299  15.297 
259  15.16  .  .    207    236  14.387 
260  15.18  .  .    198    195  14.071 
261  15.20  .  .    179    168  13.379 
262  15.22  .  .    161    149  12.689 
263  15.24  .  .    158    136  12.57  
264  15.26  .  .    134    127  11.576 
265  15.28  .  .    132    120  11.489 
266  15.30  .  .    125    115  11.18  
267  15.32  .  .    136    111  11.662 
268  15.34  .  .    132    107  11.489 
269  15.36  .  .    121    105  11     
270  15.38  .  .    110    103  10.488 
271  15.40  .  .    102    101  10.1   
272  15.42  .  .    106    100  10.296 
273  15.44  .  .    92     98   9.592  
274  15.46  .  .    110    97   10.488 
275  15.48  .  .    100    97   10     
276  15.50  .  .    108    96   10.392 
277  15.52  .  .    88     95   9.381  
278  15.54  .  .    90     95   9.487  
279  15.56  .  .    96     94   9.798  
280  15.58  .  .    86     94   9.274  
281  15.60  .  .    102    93   10.1   
282  15.62  .  .    98     93   9.899  
283  15.64  .  .    102    92   10.1   
284  15.66  .  .    108    92   10.392 
285  15.68  .  .    96     92   9.798  
286  15.70  .  .    88     92   9.381  
287  15.72  .  .    84     91   9.165  
288  15.74  .  .    86     91   9.274  
289  15.76  .  .    90     91   9.487  
290  15.78  .  .    104    91   10.198 
291  15.80  .  .    94     90   9.695  
292  15.82  .  .    84     90   9.165  
293  15.84  .  .    94     89   9.695  
294  15.86  .  .    90     89   9.487  
295  15.88  .  .    77     89   8.775  
296  15.90  .  .    98     89   9.899  
297  15.92  .  .    84     88   9.165  
298  15.94  .  .    90     88   9.487  
299  15.96  .  .    75     88   8.66   
300  15.98  .  .    75     88   8.66   
301  16.00  .  .    84     88   9.165  
302  16.02  .  .    96     88   9.798  
303  16.04  .  .    79     88   8.888  
304  16.06  .  .    92     88   9.592  
305  16.08  .  .    98     87   9.899  
306  16.10  .  .    98     87   9.899  
307  16.12  .  .    88     87   9.381  
308  16.14  .  .    79     87   8.888  
309  16.16  .  .    94     87   9.695  
310  16.18  .  .    90     87   9.487  
311  16.20  .  .    75     87   8.66   
312  16.22  .  .    82     87   9.055  
313  16.24  .  .    82     86   9.055  
314  16.26  .  .    72     86   8.485  
315  16.28  .  .    72     86   8.485  
316  16.30  .  .    59     86   7.681  
317  16.32  .  .    72     86   8.485  
318  16.34  .  .    65     86   8.062  
319  16.36  .  .    81     86   9      
320  16.38  .  .    100    86   10     
321  16.40  .  .    65     86   8.062  
322  16.42  .  .    70     86   8.367  
323  16.44  .  .    90     86   9.487  
324  16.46  .  .    75     86   8.66   
325  16.48  .  .    72     86   8.485  
326  16.50  .  .    77     85   8.775  
327  16.52  .  .    67     85   8.185  
328  16.54  .  .    79     85   8.888  
329  16.56  .  .    65     85   8.062  
330  16.58  .  .    94     85   9.695  
331  16.60  .  .    94     85   9.695  
332  16.62  .  .    67     85   8.185  
333  16.64  .  .    86     85   9.274  
334  16.66  .  .    70     85   8.367  
335  16.68  .  .    59     85   7.681  
336  16.70  .  .    72     85   8.485  
337  16.72  .  .    77     85   8.775  
338  16.74  .  .    65     85   8.062  
339  16.76  .  .    77     85   8.775  
340  16.78  .  .    86     86   9.274  
341  16.80  .  .    77     86   8.775  
342  16.82  .  .    70     86   8.367  
343  16.84  .  .    84     86   9.165  
344  16.86  .  .    82     87   9.055  
345  16.88  .  .    82     87   9.055  
346  16.90  .  .    90     88   9.487  
347  16.92  .  .    88     89   9.381  
348  16.94  .  .    92     90   9.592  
349  16.96  .  .    100    91   10     
350  16.98  .  .    110    93   10.488 
351  17.00  .  .    106    96   10.296 
352  17.02  .  .    129    99   11.358 
353  17.04  .  .    121    103  11     
354  17.06  .  .    112    108  10.583 
355  17.08  .  .    125    115  11.18  
356  17.10  .  .    148    124  12.166 
357  17.12  .  .    148    136  12.166 
358  17.14  .  .    163    151  12.767 
359  17.16  .  .    176    168  13.266 
360  17.18  .  .    176    186  13.266 
361  17.20  .  .    182    201  13.491 
362  17.22  .  .    169    208  13     
363  17.24  .  .    174    195  13.191 
364  17.26  .  .    151    172  12.288 
365  17.28  .  .    134    146  11.576 
366  17.30  .  .    110    123  10.488 
367  17.32  .  .    88     106  9.381  
368  17.34  .  .    96     97   9.798  
369  17.36  .  .    94     91   9.695  
370  17.38  .  .    72     87   8.485  
371  17.40  .  .    92     85   9.592  
372  17.42  .  .    79     83   8.888  
373  17.44  .  .    86     82   9.274  
374  17.46  .  .    59     82   7.681  
375  17.48  .  .    64     81   8      
376  17.50  .  .    98     80   9.899  
377  17.52  .  .    77     80   8.775  
378  17.54  .  .    72     80   8.485  
379  17.56  .  .    70     80   8.367  
380  17.58  .  .    72     79   8.485  
381  17.60  .  .    56     79   7.483  
382  17.62  .  .    70     79   8.367  
383  17.64  .  .    77     79   8.775  
384  17.66  .  .    77     79   8.775  
385  17.68  .  .    64     78   8      
386  17.70  .  .    65     78   8.062  
387  17.72  .  .    82     78   9.055  
388  17.74  .  .    92     78   9.592  
389  17.76  .  .    67     78   8.185  
390  17.78  .  .    59     78   7.681  
391  17.80  .  .    75     78   8.66   
392  17.82  .  .    67     77   8.185  
393  17.84  .  .    53     77   7.28   
394  17.86  .  .    82     77   9.055  
395  17.88  .  .    67     77   8.185  
396  17.90  .  .    62     77   7.874  
397  17.92  .  .    62     77   7.874  
398  17.94  .  .    65     77   8.062  
399  17.96  .  .    88     77   9.381  
400  17.98  .  .    75     76   8.66   
401  18.00  .  .    67     76   8.185  
402  18.02  .  .    86     76   9.274  
403  18.04  .  .    77     76   8.775  
404  18.06  .  .    62     76   7.874  
405  18.08  .  .    67     76   8.185  
406  18.10  .  .    64     76   8      
407  18.12  .  .    70     76   8.367  
408  18.14  .  .    65     76   8.062  
409  18.16  .  .    79     76   8.888  
410  18.18  .  .    59     75   7.681  
411  18.20  .  .    53     75   7.28   
412  18.22  .  .    75     75   8.66   
413  18.24  .  .    65     75   8.062  
414  18.26  .  .    59     75   7.681  
415  18.28  .  .    81     75   9      
416  18.30  .  .    56     75   7.483  
417  18.32  .  .    77     75   8.775  
418  18.34  .  .    70     75   8.367  
419  18.36  .  .    62     75   7.874  
420  18.38  .  .    53     74   7.28   
421  18.40  .  .    49     74   7      
422  18.42  .  .    56     74   7.483  
423  18.44  .  .    53     74   7.28   
424  18.46  .  .    59     74   7.681  
425  18.48  .  .    86     74   9.274  
426  18.50  .  .    50     74   7.071  
427  18.52  .  .    59     74   7.681  
428  18.54  .  .    77     74   8.775  
429  18.56  .  .    65     74   8.062  
430  18.58  .  .    72     73   8.485  
431  18.60  .  .    67     73   8.185  
432  18.62  .  .    64     73   8      
433  18.64  .  .    70     73   8.367  
434  18.66  .  .    64     73   8      
435  18.68  .  .    59     73   7.681  
436  18.70  .  .    67     73   8.185  
437  18.72  .  .    75     73   8.66   
438  18.74  .  .    72     73   8.485  
439  18.76  .  .    72     73   8.485  
440  18.78  .  .    65     72   8.062  
441  18.80  .  .    65     72   8.062  
442  18.82  .  .    79     72   8.888  
443  18.84  .  .    72     72   8.485  
444  18.86  .  .    67     72   8.185  
445  18.88  .  .    65     72   8.062  
446  18.90  .  .    56     72   7.483  
447  18.92  .  .    70     72   8.367  
448  18.94  .  .    56     72   7.483  
449  18.96  .  .    50     72   7.071  
450  18.98  .  .    62     72   7.874  
451  19.00  .  .    53     71   7.28   
452  19.02  .  .    77     71   8.775  
453  19.04  .  .    72     71   8.485  
454  19.06  .  .    67     71   8.185  
455  19.08  .  .    72     71   8.485  
456  19.10  .  .    62     71   7.874  
457  19.12  .  .    77     71   8.775  
458  19.14  .  .    62     71   7.874  
459  19.16  .  .    72     71   8.485  
460  19.18  .  .    70     71   8.367  
461  19.20  .  .    75     71   8.66   
462  19.22  .  .    47     70   6.856  
463  19.24  .  .    56     70   7.483  
464  19.26  .  .    56     70   7.483  
465  19.28  .  .    62     70   7.874  
466  19.30  .  .    62     70   7.874  
467  19.32  .  .    72     70   8.485  
468  19.34  .  .    53     70   7.28   
469  19.36  .  .    56     70   7.483  
470  19.38  .  .    65     70   8.062  
471  19.40  .  .    72     70   8.485  
472  19.42  .  .    64     70   8      
473  19.44  .  .    53     70   7.28   
474  19.46  .  .    67     69   8.185  
475  19.48  .  .    56     69   7.483  
476  19.50  .  .    59     69   7.681  
477  19.52  .  .    53     69   7.28   
478  19.54  .  .    62     69   7.874  
479  19.56  .  .    65     69   8.062  
480  19.58  .  .    72     69   8.485  
481  19.60  .  .    56     69   7.483  
482  19.62  .  .    82     69   9.055  
483  19.64  .  .    56     69   7.483  
484  19.66  .  .    59     69   7.681  
485  19.68  .  .    50     68   7.071  
486  19.70  .  .    59     68   7.681  
487  19.72  .  .    65     68   8.062  
488  19.74  .  .    56     68   7.483  
489  19.76  .  .    56     68   7.483  
490  19.78  .  .    62     68   7.874  
491  19.80  .  .    65     68   8.062  
492  19.82  .  .    70     68   8.367  
493  19.84  .  .    56     68   7.483  
494  19.86  .  .    79     68   8.888  
495  19.88  .  .    67     68   8.185  
496  19.90  .  .    72     68   8.485  
497  19.92  .  .    77     67   8.775  
498  19.94  .  .    67     67   8.185  
499  19.96  .  .    70     67   8.367  
500  19.98  .  .    67     67   8.185  
501  20.00  .  .    67     67   8.185  
502  20.02  .  .    67     67   8.185  
503  20.04  .  .    50     67   7.071  
504  20.06  .  .    49     67   7      
505  20.08  .  .    72     67   8.485  
506  20.10  .  .    62     67   7.874  
507  20.12  .  .    53     67   7.28   
508  20.14  .  .    62     68   7.874  
509  20.16  .  .    53     68   7.28   
510  20.18  .  .    56     68   7.483  
511  20.20  .  .    53     69   7.28   
512  20.22  .  .    65     69   8.062  
513  20.24  .  .    59     69   7.681  
514  20.26  .  .    67     69   8.185  
515  20.28  .  .    72     69   8.485  
516  20.30  .  .    56     69   7.483  
517  20.32  .  .    67     69   8.185  
518  20.34  .  .    65     69   8.062  
519  20.36  .  .    67     70   8.185  
520  20.38  .  .    62     70   7.874  
521  20.40  .  .    64     70   8      
522  20.42  .  .    67     70   8.185  
523  20.44  .  .    67     71   8.185  
524  20.46  .  .    67     71   8.185  
525  20.48  .  .    62     72   7.874  
526  20.50  .  .    72     72   8.485  
527  20.52  .  .    50     73   7.071  
528  20.54  .  .    64     74   8      
529  20.56  .  .    62     75   7.874  
530  20.58  .  .    75     76   8.66   
531  20.60  .  .    92     78   9.592  
532  20.62  .  .    98     79   9.899  
533  20.64  .  .    75     81   8.66   
534  20.66  .  .    79     84   8.888  
535  20.68  .  .    82     87   9.055  
536  20.70  .  .    81     90   9      
537  20.72  .  .    82     95   9.055  
538  20.74  .  .    110    100  10.488 
539  20.76  .  .    72     108  8.485  
540  20.78  .  .    108    117  10.392 
541  20.80  .  .    116    129  10.77  
542  20.82  .  .    116    145  10.77  
543  20.84  .  .    129    166  11.358 
544  20.86  .  .    182    195  13.491 
545  20.88  .  .    222    233  14.9   
546  20.90  .  .    306    285  17.493 
547  20.92  .  .    392    353  19.799 
548  20.94  .  .    466    436  21.587 
549  20.96  .  .    538    526  23.195 
550  20.98  .  .    620    604  24.9   
551  21.00  .  .    610    643  24.698 
552  21.02  .  .    571    587  23.896 
553  21.04  .  .    470    493  21.679 
554  21.06  .  .    380    397  19.494 
555  21.08  .  .    256    293  16     
556  21.10  .  .    187    213  13.675 
557  21.12  .  .    151    161  12.288 
558  21.14  .  .    121    129  11     
559  21.16  .  .    121    109  11     
560  21.18  .  .    82     96   9.055  
561  21.20  .  .    75     88   8.66   
562  21.22  .  .    81     82   9      
563  21.24  .  .    86     78   9.274  
564  21.26  .  .    70     75   8.367  
565  21.28  .  .    81     72   9      
566  21.30  .  .    75     71   8.66   
567  21.32  .  .    77     69   8.775  
568  21.34  .  .    59     68   7.681  
569  21.36  .  .    64     67   8      
570  21.38  .  .    65     66   8.062  
571  21.40  .  .    67     66   8.185  
572  21.42  .  .    62     65   7.874  
573  21.44  .  .    56     65   7.483  
574  21.46  .  .    50     64   7.071  
575  21.48  .  .    62     64   7.874  
576  21.50  .  .    75     64   8.66   
577  21.52  .  .    56     63   7.483  
578  21.54  .  .    62     63   7.874  
579  21.56  .  .    49     63   7      
580  21.58  .  .    56     63   7.483  
581  21.60  .  .    59     63   7.681  
582  21.62  .  .    64     62   8      
583  21.64  .  .    64     62   8      
584  21.66  .  .    56     62   7.483  
585  21.68  .  .    62     62   7.874  
586  21.70  .  .    43     61   6.557  
587  21.72  .  .    56     61   7.483  
588  21.74  .  .    53     61   7.28   
589  21.76  .  .    65     61   8.062  
590  21.78  .  .    65     61   8.062  
591  21.80  .  .    56     61   7.483  
592  21.82  .  .    53     61   7.28   
593  21.84  .  .    67     61   8.185  
594  21.86  .  .    70     60   8.367  
595  21.88  .  .    64     60   8      
596  21.90  .  .    42     60   6.481  
597  21.92  .  .    62     60   7.874  
598  21.94  .  .    50     60   7.071  
599  21.96  .  .    50     60   7.071  
600  21.98  .  .    56     60   7.483  
601  22.00  .  .    50     60   7.071  
602  22.02  .  .    50     60   7.071  
603  22.04  .  .    56     60   7.483  
604  22.06  .  .    59     60   7.681  
605  22.08  .  .    67     60   8.185  
606  22.10  .  .    65     60   8.062  
607  22.12  .  .    72     60   8.485  
608  22.14  .  .    62     60   7.874  
609  22.16  .  .    72     60   8.485  
610  22.18  .  .    50     59   7.071  
611  22.20  .  .    64     59   8      
612  22.22  .  .    59     59   7.681  
613  22.24  .  .    59     59   7.681  
614  22.26  .  .    56     59   7.483  
615  22.28  .  .    67     59   8.185  
616  22.30  .  .    59     59   7.681  
617  22.32  .  .    75     59   8.66   
618  22.34  .  .    53     59   7.28   
619  22.36  .  .    59     59   7.681  
620  22.38  .  .    65     59   8.062  
621  22.40  .  .    75     59   8.66   
622  22.42  .  .    59     59   7.681  
623  22.44  .  .    81     59   9      
624  22.46  .  .    72     59   8.485  
625  22.48  .  .    59     59   7.681  
626  22.50  .  .    62     59   7.874  
627  22.52  .  .    47     58   6.856  
628  22.54  .  .    50     58   7.071  
629  22.56  .  .    59     58   7.681  
630  22.58  .  .    53     58   7.28   
631  22.60  .  .    56     58   7.483  
632  22.62  .  .    53     58   7.28   
633  22.64  .  .    50     58   7.071  
634  22.66  .  .    50     58   7.071  
635  22.68  .  .    49     58   7      
636  22.70  .  .    62     58   7.874  
637  22.72  .  .    62     58   7.874  
638  22.74  .  .    56     58   7.483  
639  22.76  .  .    47     58   6.856  
640  22.78  .  .    53     58   7.28   
641  22.80  .  .    65     58   8.062  
642  22.82  .  .    67     58   8.185  
643  22.84  .  .    56     58   7.483  
644  22.86  .  .    50     58   7.071  
645  22.88  .  .    62     57   7.874  
646  22.90  .  .    70     57   8.367  
647  22.92  .  .    50     57   7.071  
648  22.94  .  .    59     57   7.681  
649  22.96  .  .    56     57   7.483  
650  22.98  .  .    47     57   6.856  
651  23.00  .  .    59     57   7.681  
652  23.02  .  .    62     57   7.874  
653  23.04  .  .    50     57   7.071  
654  23.06  .  .    53     57   7.28   
655  23.08  .  .    62     57   7.874  
656  23.10  .  .    56     57   7.483  
657  23.12  .  .    59     57   7.681  
658  23.14  .  .    56     57   7.483  
659  23.16  .  .    64     57   8      
660  23.18  .  .    67     57   8.185  
661  23.20  .  .    53     57   7.28   
662  23.22  .  .    59     57   7.681  
663  23.24  .  .    62     56   7.874  
664  23.26  .  .    64     58   8      
665  23.28  .  .    67     58   8.185  
666  23.30  .  .    50     58   7.071  
667  23.32  .  .    53     59   7.28   
668  23.34  .  .    75     59   8.66   
669  23.36  .  .    47     59   6.856  
670  23.38  .  .    47     60   6.856  
671  23.40  .  .    70     60   8.367  
672  23.42  .  .    59     60   7.681  
673  23.44  .  .    53     60   7.28   
674  23.46  .  .    49     61   7      
675  23.48  .  .    50     61   7.071  
676  23.50  .  .    65     62   8.062  
677  23.52  .  .    50     62   7.071  
678  23.54  .  .    50     63   7.071  
679  23.56  .  .    53     63   7.28   
680  23.58  .  .    70     64   8.367  
681  23.60  .  .    43     65   6.557  
682  23.62  .  .    53     67   7.28   
683  23.64  .  .    65     68   8.062  
684  23.66  .  .    65     70   8.062  
685  23.68  .  .    77     72   8.775  
686  23.70  .  .    75     75   8.66   
687  23.72  .  .    81     78   9      
688  23.74  .  .    77     82   8.775  
689  23.76  .  .    72     87   8.485  
690  23.78  .  .    79     94   8.888  
691  23.80  .  .    100    103  10     
692  23.82  .  .    92     114  9.592  
693  23.84  .  .    118    130  10.863 
694  23.86  .  .    134    152  11.576 
695  23.88  .  .    169    183  13     
696  23.90  .  .    204    226  14.283 
697  23.92  .  .    292    288  17.088 
698  23.94  .  .    380    371  19.494 
699  23.96  .  .    497    475  22.293 
700  23.98  .  .    501    576  22.383 
701  24.00  .  .    566    639  23.791 
702  24.02  .  .    556    593  23.58  
703  24.04  .  .    501    498  22.383 
704  24.06  .  .    428    419  20.688 
705  24.08  .  .    313    322  17.692 
706  24.10  .  .    246    226  15.684 
707  24.12  .  .    174    162  13.191 
708  24.14  .  .    146    125  12.083 
709  24.16  .  .    112    103  10.583 
710  24.18  .  .    116    89   10.77  
711  24.20  .  .    90     80   9.487  
712  24.22  .  .    79     74   8.888  
713  24.24  .  .    72     70   8.485  
714  24.26  .  .    65     67   8.062  
715  24.28  .  .    67     65   8.185  
716  24.30  .  .    70     63   8.367  
717  24.32  .  .    56     62   7.483  
718  24.34  .  .    56     61   7.483  
719  24.36  .  .    59     60   7.681  
720  24.38  .  .    70     59   8.367  
721  24.40  .  .    67     59   8.185  
722  24.42  .  .    47     58   6.856  
723  24.44  .  .    59     58   7.681  
724  24.46  .  .    49     58   7      
725  24.48  .  .    65     59   8.062  
726  24.50  .  .    53     59   7.28   
727  24.52  .  .    62     60   7.874  
728  24.54  .  .    72     60   8.485  
729  24.56  .  .    70     62   8.367  
730  24.58  .  .    96     64   9.798  
731  24.60  .  .    94     66   9.695  
732  24.62  .  .    92     69   9.592  
733  24.64  .  .    102    73   10.1   
734  24.66  .  .    116    76   10.77  
735  24.68  .  .    116    78   10.77  
736  24.70  .  .    108    76   10.392 
737  24.72  .  .    125    72   11.18  
738  24.74  .  .    129    69   11.358 
739  24.76  .  .    116    65   10.77  
740  24.78  .  .    108    62   10.392 
741  24.80  .  .    110    59   10.488 
742  24.82  .  .    100    57   10     
743  24.84  .  .    75     56   8.66   
744  24.86  .  .    92     55   9.592  
745  24.88  .  .    90     59   9.487  
746  24.90  .  .    77     59   8.775  
747  24.92  .  .    67     59   8.185  
748  24.94  .  .    81     61   9      
749  24.96  .  .    77     61   8.775  
750  24.98  .  .    70     62   8.367  
751  25.00  .  .    75     62   8.66   
752  25.02  .  .    50     63   7.071  
753  25.04  .  .    70     64   8.367  
754  25.06  .  .    79     64   8.888  
755  25.08  .  .    72     65   8.485  
756  25.10  .  .    92     66   9.592  
757  25.12  .  .    72     67   8.485  
758  25.14  .  .    72     69   8.485  
759  25.16  .  .    67     70   8.185  
760  25.18  .  .    94     72   9.695  
761  25.20  .  .    86     74   9.274  
762  25.22  .  .    96     76   9.798  
763  25.24  .  .    90     79   9.487  
764  25.26  .  .    82     82   9.055  
765  25.28  .  .    102    86   10.1   
766  25.30  .  .    123    91   11.091 
767  25.32  .  .    108    109  10.392 
768  25.34  .  .    118    116  10.863 
769  25.36  .  .    116    125  10.77  
770  25.38  .  .    106    142  10.296 
771  25.40  .  .    144    155  12     
772  25.42  .  .    169    171  13     
773  25.44  .  .    179    191  13.379 
774  25.46  .  .    163    217  12.767 
775  25.48  .  .    207    251  14.387 
776  25.50  .  .    306    295  17.493 
777  25.52  .  .    295    355  17.176 
778  25.54  .  .    453    438  21.284 
779  25.56  .  .    547    553  23.388 
780  25.58  .  .    696    714  26.382 
781  25.60  .  .    942    933  30.692 
782  25.62  .  .    1162   1209 34.088 
783  25.64  .  .    1421   1500 37.696 
784  25.66  .  .    1560   1713 39.497 
785  25.68  .  .    1656   1708 40.694 
786  25.70  .  .    1482   1492 38.497 
787  25.72  .  .    1260   1279 35.496 
788  25.74  .  .    1004   1068 31.686 
789  25.76  .  .    823    802  28.688 
790  25.78  .  .    625    584  25     
791  25.80  .  .    462    443  21.494 
792  25.82  .  .    353    360  18.788 
793  25.84  .  .    334    312  18.276 
794  25.86  .  .    285    287  16.882 
795  25.88  .  .    249    275  15.78  
796  25.90  .  .    272    273  16.492 
797  25.92  .  .    275    279  16.583 
798  25.94  .  .    289    292  17     
799  25.96  .  .    306    311  17.493 
800  25.98  .  .    331    337  18.193 
801  26.00  .  .    372    370  19.287 
802  26.02  .  .    388    413  19.698 
803  26.04  .  .    400    467  20     
804  26.06  .  .    497    535  22.293 
805  26.08  .  .    576    621  24     
806  26.10  .  .    670    732  25.884 
807  26.12  .  .    795    875  28.196 
808  26.14  .  .    1011   1062 31.796 
809  26.16  .  .    1239   1307 35.199 
810  26.18  .  .    1576   1632 39.699 
811  26.20  .  .    2052   2059 45.299 
812  26.22  .  .    2672   2612 51.691 
813  26.24  .  .    3433   3294 58.592 
814  26.26  .  .    4121   4058 64.195 
815  26.28  .  .    4788   4777 69.195 
816  26.30  .  .    5126   5267 71.596 
817  26.32  .  .    5155   5288 71.798 
818  26.34  .  .    4692   4836 68.498 
819  26.36  .  .    4160   4221 64.498 
820  26.38  .  .    3364   3549 58     
821  26.40  .  .    2662   2789 51.595 
822  26.42  .  .    2070   2090 45.497 
823  26.44  .  .    1474   1545 38.393 
824  26.46  .  .    1183   1154 34.395 
825  26.48  .  .    864    881  29.394 
826  26.50  .  .    718    688  26.796 
827  26.52  .  .    552    550  23.495 
828  26.54  .  .    519    450  22.782 
829  26.56  .  .    462    375  21.494 
830  26.58  .  .    364    318  19.079 
831  26.60  .  .    388    274  19.698 
832  26.62  .  .    275    239  16.583 
833  26.64  .  .    299    212  17.292 
834  26.66  .  .    240    189  15.492 
835  26.68  .  .    225    171  15     
836  26.70  .  .    201    156  14.177 
837  26.72  .  .    201    143  14.177 
838  26.74  .  .    174    133  13.191 
839  26.76  .  .    161    123  12.689 
840  26.78  .  .    151    116  12.288 
841  26.80  .  .    114    109  10.677 
842  26.82  .  .    108    103  10.392 
843  26.84  .  .    102    98   10.1   
844  26.86  .  .    98     94   9.899  
845  26.88  .  .    94     90   9.695  
846  26.90  .  .    90     87   9.487  
847  26.92  .  .    88     87   9.381  
848  26.94  .  .    84     84   9.165  
849  26.96  .  .    82     82   9.055  
850  26.98  .  .    79     81   8.888  
851  27.00  .  .    77     80   8.775  
852  27.02  .  .    81     79   9      
853  27.04  .  .    79     77   8.888  
854  27.06  .  .    79     76   8.888  
855  27.08  .  .    79     76   8.888  
856  27.10  .  .    79     75   8.888  
857  27.12  .  .    79     75   8.888  
858  27.14  .  .    67     65   8.185  
859  27.16  .  .    67     65   8.185  
860  27.18  .  .    67     66   8.185  
861  27.20  .  .    65     62   8.062  
862  27.22  .  .    65     63   8.062  
863  27.24  .  .    67     65   8.185  
864  27.26  .  .    70     66   8.367  
865  27.28  .  .    72     69   8.485  
866  27.30  .  .    72     71   8.485  
867  27.32  .  .    77     74   8.775  
868  27.34  .  .    81     78   9      
869  27.36  .  .    84     83   9.165  
870  27.38  .  .    90     88   9.487  
871  27.40  .  .    98     95   9.899  
872  27.42  .  .    106    104  10.296 
873  27.44  .  .    116    115  10.77  
874  27.46  .  .    136    129  11.662 
875  27.48  .  .    153    149  12.369 
876  27.50  .  .    176    174  13.266 
877  27.52  .  .    222    210  14.9   
878  27.54  .  .    246    261  15.684 
879  27.56  .  .    342    333  18.493 
880  27.58  .  .    466    437  21.587 
881  27.60  .  .    595    584  24.393 
882  27.62  .  .    745    772  27.295 
883  27.64  .  .    888    967  29.799 
884  27.66  .  .    1011   1089 31.796 
885  27.68  .  .    1004   1026 31.686 
886  27.70  .  .    888    875  29.799 
887  27.72  .  .    829    759  28.792 
888  27.74  .  .    630    637  25.1   
889  27.76  .  .    510    465  22.583 
890  27.78  .  .    380    321  19.494 
891  27.80  .  .    289    229  17     
892  27.82  .  .    228    172  15.1   
893  27.84  .  .    174    137  13.191 
894  27.86  .  .    148    114  12.166 
895  27.88  .  .    125    99   11.18  
896  27.90  .  .    118    88   10.863 
897  27.92  .  .    98     80   9.899  
898  27.94  .  .    108    74   10.392 
899  27.96  .  .    72     70   8.485  
900  27.98  .  .    94     66   9.695  
901  28.00  .  .    86     63   9.274  
902  28.02  .  .    75     61   8.66   
903  28.04  .  .    84     59   9.165  
904  28.06  .  .    82     58   9.055  
905  28.08  .  .    86     56   9.274  
906  28.10  .  .    82     55   9.055  
907  28.12  .  .    65     54   8.062  
908  28.14  .  .    82     54   9.055  
909  28.16  .  .    65     53   8.062  
910  28.18  .  .    110    52   10.488 
911  28.20  .  .    81     52   9      
912  28.22  .  .    72     51   8.485  
913  28.24  .  .    56     51   7.483  
914  28.26  .  .    70     48   8.367  
915  28.28  .  .    70     48   8.367  
916  28.30  .  .    43     48   6.557  
917  28.32  .  .    70     48   8.367  
918  28.34  .  .    77     47   8.775  
919  28.36  .  .    70     47   8.367  
920  28.38  .  .    75     47   8.66   
921  28.40  .  .    67     47   8.185  
922  28.42  .  .    64     47   8      
923  28.44  .  .    70     47   8.367  
924  28.46  .  .    43     47   6.557  
925  28.48  .  .    56     47   7.483  
926  28.50  .  .    50     47   7.071  
927  28.52  .  .    65     47   8.062  
928  28.54  .  .    56     47   7.483  
929  28.56  .  .    47     47   6.856  
930  28.58  .  .    56     47   7.483  
931  28.60  .  .    50     47   7.071  
932  28.62  .  .    46     47   6.782  
933  28.64  .  .    56     47   7.483  
934  28.66  .  .    50     47   7.071  
935  28.68  .  .    33     46   5.745  
936  28.70  .  .    49     46   7      
937  28.72  .  .    49     46   7      
938  28.74  .  .    49     46   7      
939  28.76  .  .    49     46   7      
940  28.78  .  .    49     46   7      
941  28.80  .  .    49     46   7      
942  28.82  .  .    49     46   7      
943  28.84  .  .    49     46   7      
944  28.86  .  .    49     46   7      
945  28.88  .  .    49     46   7      
946  28.90  .  .    49     46   7      
947  28.92  .  .    49     46   7      
948  28.94  .  .    49     46   7      
949  28.96  .  .    49     46   7      
950  28.98  .  .    49     46   7      
951  29.00  .  .    49     46   7      
952  29.02  .  .    49     46   7      
953  29.04  .  .    49     46   7      
954  29.06  .  .    49     46   7      
955  29.08  .  .    47     46   6.856  
956  29.10  .  .    88     46   9.381  
957  29.12  .  .    50     46   7.071  
958  29.14  .  .    47     46   6.856  
959  29.16  .  .    59     46   7.681  
960  29.18  .  .    67     46   8.185  
961  29.20  .  .    50     46   7.071  
962  29.22  .  .    70     46   8.367  
963  29.24  .  .    56     46   7.483  
964  29.26  .  .    59     47   7.681  
965  29.28  .  .    50     48   7.071  
966  29.30  .  .    56     48   7.483  
967  29.32  .  .    70     50   8.367  
968  29.34  .  .    59     50   7.681  
969  29.36  .  .    53     50   7.28   
970  29.38  .  .    56     50   7.483  
971  29.40  .  .    67     50   8.185  
972  29.42  .  .    47     51   6.856  
973  29.44  .  .    59     51   7.681  
974  29.46  .  .    59     51   7.681  
975  29.48  .  .    67     52   8.185  
976  29.50  .  .    70     52   8.367  
977  29.52  .  .    53     53   7.28   
978  29.54  .  .    56     53   7.483  
979  29.56  .  .    59     54   7.681  
980  29.58  .  .    59     54   7.681  
981  29.60  .  .    59     55   7.681  
982  29.62  .  .    59     56   7.681  
983  29.64  .  .    62     57   7.874  
984  29.66  .  .    64     58   8      
985  29.68  .  .    65     59   8.062  
986  29.70  .  .    67     60   8.185  
987  29.72  .  .    67     61   8.185  
988  29.74  .  .    70     63   8.367  
989  29.76  .  .    72     65   8.485  
990  29.78  .  .    75     67   8.66   
991  29.80  .  .    79     70   8.888  
992  29.82  .  .    82     73   9.055  
993  29.84  .  .    88     77   9.381  
994  29.86  .  .    94     82   9.695  
995  29.88  .  .    100    88   10     
996  29.90  .  .    108    95   10.392 
997  29.92  .  .    121    103  11     
998  29.94  .  .    132    114  11.489 
999  29.96  .  .    148    128  12.166 
1000 29.98  .  .    174    147  13.191 
1001 30.00  .  .    201    171  14.177 
1002 30.02  .  .    268    204  16.371 
1003 30.04  .  .    295    248  17.176 
1004 30.06  .  .    357    308  18.894 
1005 30.08  .  .    529    400  23     
1006 30.10  .  .    610    507  24.698 
1007 30.12  .  .    707    629  26.589 
1008 30.14  .  .    858    743  29.292 
1009 30.16  .  .    835    814  28.896 
1010 30.18  .  .    930    793  30.496 
1011 30.20  .  .    789    723  28.089 
1012 30.22  .  .    686    650  26.192 
1013 30.24  .  .    595    573  24.393 
1014 30.26  .  .    501    473  22.383 
1015 30.28  .  .    349    374  18.682 
1016 30.30  .  .    285    295  16.882 
1017 30.32  .  .    259    239  16.093 
1018 30.34  .  .    182    201  13.491 
1019 30.36  .  .    198    176  14.071 
1020 30.38  .  .    171    159  13.077 
1021 30.40  .  .    156    148  12.49  
1022 30.42  .  .    163    142  12.767 
1023 30.44  .  .    136    138  11.662 
1024 30.46  .  .    153    138  12.369 
1025 30.48  .  .    161    140  12.689 
1026 30.50  .  .    153    144  12.369 
1027 30.52  .  .    153    150  12.369 
1028 30.54  .  .    174    158  13.191 
1029 30.56  .  .    132    170  11.489 
1030 30.58  .  .    182    184  13.491 
1031 30.60  .  .    204    202  14.283 
1032 30.62  .  .    187    225  13.675 
1033 30.64  .  .    228    254  15.1   
1034 30.66  .  .    259    291  16.093 
1035 30.68  .  .    316    340  17.776 
1036 30.70  .  .    404    404  20.1   
1037 30.72  .  .    470    491  21.679 
1038 30.74  .  .    561    609  23.685 
1039 30.76  .  .    718    774  26.796 
1040 30.78  .  .    1017   1007 31.89  
1041 30.80  .  .    1436   1336 37.895 
1042 30.82  .  .    1814   1788 42.591 
1043 30.84  .  .    2470   2351 49.699 
1044 30.86  .  .    2862   2906 53.498 
1045 30.88  .  .    2926   3224 54.093 
1046 30.90  .  .    2981   3067 54.599 
1047 30.92  .  .    2745   2683 52.393 
1048 30.94  .  .    2460   2372 49.598 
1049 30.96  .  .    2025   2079 45     
1050 30.98  .  .    1608   1649 40.1   
1051 31.00  .  .    1190   1192 34.496 
1052 31.02  .  .    858    845  29.292 
1053 31.04  .  .    681    612  26.096 
1054 31.06  .  .    492    459  22.181 
1055 31.08  .  .    384    357  19.596 
1056 31.10  .  .    299    287  17.292 
1057 31.12  .  .    282    237  16.793 
1058 31.14  .  .    234    200  15.297 
1059 31.16  .  .    184    173  13.565 
1060 31.18  .  .    196    152  14     
1061 31.20  .  .    151    135  12.288 
1062 31.22  .  .    127    122  11.269 
1063 31.24  .  .    151    112  12.288 
1064 31.26  .  .    129    103  11.358 
1065 31.28  .  .    127    96   11.269 
1066 31.30  .  .    94     90   9.695  
1067 31.32  .  .    96     85   9.798  
1068 31.34  .  .    110    81   10.488 
1069 31.36  .  .    100    77   10     
1070 31.38  .  .    100    74   10     
1071 31.40  .  .    94     71   9.695  
1072 31.42  .  .    94     68   9.695  
1073 31.44  .  .    102    66   10.1   
1074 31.46  .  .    98     64   9.899  
1075 31.48  .  .    77     63   8.775  
1076 31.50  .  .    106    61   10.296 
1077 31.52  .  .    84     60   9.165  
1078 31.54  .  .    90     50   9.487  
1079 31.56  .  .    79     61   8.888  
1080 31.58  .  .    90     62   9.487  
1081 31.60  .  .    72     62   8.485  
1082 31.62  .  .    84     58   9.165  
1083 31.64  .  .    79     65   8.888  
1084 31.66  .  .    98     66   9.899  
1085 31.68  .  .    79     67   8.888  
1086 31.70  .  .    96     69   9.798  
1087 31.72  .  .    86     70   9.274  
1088 31.74  .  .    88     72   9.381  
1089 31.76  .  .    81     74   9      
1090 31.78  .  .    98     76   9.899  
1091 31.80  .  .    108    78   10.392 
1092 31.82  .  .    116    81   10.77  
1093 31.84  .  .    88     84   9.381  
1094 31.86  .  .    90     87   9.487  
1095 31.88  .  .    94     91   9.695  
1096 31.90  .  .    108    95   10.392 
1097 31.92  .  .    96     99   9.798  
1098 31.94  .  .    102    104  10.1   
1099 31.96  .  .    114    110  10.677 
1100 31.98  .  .    114    117  10.677 
1101 32.00  .  .    125    125  11.18  
1102 32.02  .  .    139    134  11.79  
1103 32.04  .  .    112    144  10.583 
1104 32.06  .  .    148    156  12.166 
1105 32.08  .  .    198    170  14.071 
1106 32.10  .  .    187    187  13.675 
1107 32.12  .  .    198    208  14.071 
1108 32.14  .  .    237    233  15.395 
1109 32.16  .  .    231    264  15.199 
1110 32.18  .  .    272    302  16.492 
1111 32.20  .  .    324    350  18     
1112 32.22  .  .    384    412  19.596 
1113 32.24  .  .    436    492  20.881 
1114 32.26  .  .    566    598  23.791 
1115 32.28  .  .    707    742  26.589 
1116 32.30  .  .    888    939  29.799 
1117 32.32  .  .    1183   1212 34.395 
1118 32.34  .  .    1624   1590 40.299 
1119 32.36  .  .    2237   2097 47.297 
1120 32.38  .  .    2756   2716 52.498 
1121 32.40  .  .    3352   3324 57.896 
1122 32.42  .  .    3708   3695 60.893 
1123 32.44  .  .    3721   3604 61     
1124 32.46  .  .    3445   3226 58.694 
1125 32.48  .  .    3091   2876 55.597 
1126 32.50  .  .    2530   2562 50.299 
1127 32.52  .  .    2209   2143 47     
1128 32.54  .  .    1616   1635 40.2   
1129 32.56  .  .    1218   1197 34.9   
1130 32.58  .  .    870    880  29.496 
1131 32.60  .  .    630    663  25.1   
1132 32.62  .  .    479    514  21.886 
1133 32.64  .  .    412    410  20.298 
1134 32.66  .  .    306    335  17.493 
1135 32.68  .  .    295    281  17.176 
1136 32.70  .  .    259    239  16.093 
1137 32.72  .  .    213    207  14.595 
1138 32.74  .  .    201    183  14.177 
1139 32.76  .  .    182    163  13.491 
1140 32.78  .  .    161    147  12.689 
1141 32.80  .  .    141    133  11.874 
1142 32.82  .  .    129    123  11.358 
1143 32.84  .  .    121    113  11     
1144 32.86  .  .    112    106  10.583 
1145 32.88  .  .    106    99   10.296 
1146 32.90  .  .    100    98   10     
1147 32.92  .  .    94     94   9.695  
1148 32.94  .  .    90     90   9.487  
1149 32.96  .  .    86     86   9.274  
1150 32.98  .  .    82     84   9.055  
1151 33.00  .  .    86     83   9.274  
1152 33.02  .  .    84     81   9.165  
1153 33.04  .  .    82     80   9.055  
1154 33.06  .  .    81     78   9      
1155 33.08  .  .    82     77   9.055  
1156 33.10  .  .    82     77   9.055  
1157 33.12  .  .    67     76   8.185  
1158 33.14  .  .    67     64   8.185  
1159 33.16  .  .    67     65   8.185  
1160 33.18  .  .    70     66   8.367  
1161 33.20  .  .    70     67   8.367  
1162 33.22  .  .    65     62   8.062  
1163 33.24  .  .    67     64   8.185  
1164 33.26  .  .    70     66   8.367  
1165 33.28  .  .    72     68   8.485  
1166 33.30  .  .    75     71   8.66   
1167 33.32  .  .    79     74   8.888  
1168 33.34  .  .    82     78   9.055  
1169 33.36  .  .    86     83   9.274  
1170 33.38  .  .    92     88   9.592  
1171 33.40  .  .    100    95   10     
1172 33.42  .  .    106    102  10.296 
1173 33.44  .  .    116    112  10.77  
1174 33.46  .  .    129    124  11.358 
1175 33.48  .  .    144    139  12     
1176 33.50  .  .    166    159  12.884 
1177 33.52  .  .    193    184  13.892 
1178 33.54  .  .    184    219  13.565 
1179 33.56  .  .    272    265  16.492 
1180 33.58  .  .    289    330  17     
1181 33.60  .  .    416    422  20.396 
1182 33.62  .  .    497    553  22.293 
1183 33.64  .  .    756    738  27.495 
1184 33.66  .  .    998    976  31.591 
1185 33.68  .  .    1246   1226 35.299 
1186 33.70  .  .    1303   1380 36.097 
1187 33.72  .  .    1398   1332 37.39  
1188 33.74  .  .    1324   1168 36.387 
1189 33.76  .  .    1162   1042 34.088 
1190 33.78  .  .    1056   951  32.496 
1191 33.80  .  .    852    818  29.189 
1192 33.82  .  .    660    628  25.69  
1193 33.84  .  .    510    457  22.583 
1194 33.86  .  .    380    344  19.494 
1195 33.88  .  .    256    264  16     
1196 33.90  .  .    201    211  14.177 
1197 33.92  .  .    146    175  12.083 
1198 33.94  .  .    151    149  12.288 
1199 33.96  .  .    121    135  11     
1200 33.98  .  .    136    121  11.662 
1201 34.00  .  .    110    112  10.488 
1202 34.02  .  .    108    104  10.392 
1203 34.04  .  .    100    98   10     
1204 34.06  .  .    110    94   10.488 
1205 34.08  .  .    92     91   9.592  
1206 34.10  .  .    88     89   9.381  
1207 34.12  .  .    79     87   8.888  
1208 34.14  .  .    92     86   9.592  
1209 34.16  .  .    92     86   9.592  
1210 34.18  .  .    92     86   9.592  
1211 34.20  .  .    92     86   9.592  
1212 34.22  .  .    94     87   9.695  
1213 34.24  .  .    94     89   9.695  
1214 34.26  .  .    96     91   9.798  
1215 34.28  .  .    100    93   10     
1216 34.30  .  .    102    96   10.1   
1217 34.32  .  .    106    100  10.296 
1218 34.34  .  .    112    105  10.583 
1219 34.36  .  .    112    105  10.583 
1220 34.38  .  .    118    112  10.863 
1221 34.40  .  .    127    120  11.269 
1222 34.42  .  .    136    129  11.662 
1223 34.44  .  .    146    138  12.083 
1224 34.46  .  .    161    152  12.689 
1225 34.48  .  .    179    169  13.379 
1226 34.50  .  .    198    190  14.071 
1227 34.52  .  .    228    217  15.1   
1228 34.54  .  .    262    250  16.186 
1229 34.56  .  .    278    293  16.673 
1230 34.58  .  .    353    349  18.788 
1231 34.60  .  .    396    424  19.9   
1232 34.62  .  .    470    527  21.679 
1233 34.64  .  .    645    667  25.397 
1234 34.66  .  .    888    863  29.799 
1235 34.68  .  .    1225   1129 35     
1236 34.70  .  .    1544   1469 39.294 
1237 34.72  .  .    1892   1841 43.497 
1238 34.74  .  .    2116   2126 46     
1239 34.76  .  .    2190   2186 46.797 
1240 34.78  .  .    2106   2009 45.891 
1241 34.80  .  .    1971   1797 44.396 
1242 34.82  .  .    1689   1633 41.097 
1243 34.84  .  .    1513   1461 38.897 
1244 34.86  .  .    1176   1208 34.293 
1245 34.88  .  .    992    926  31.496 
1246 34.90  .  .    723    692  26.889 
1247 34.92  .  .    556    523  23.58  
1248 34.94  .  .    404    405  20.1   
1249 34.96  .  .    349    322  18.682 
1250 34.98  .  .    262    264  16.186 
1251 35.00  .  .    225    221  15     
1252 35.02  .  .    190    189  13.784 
1253 35.04  .  .    141    164  11.874 
1254 35.06  .  .    148    145  12.166 
1255 35.08  .  .    129    130  11.358 
1256 35.10  .  .    116    118  10.77  
1257 35.12  .  .    114    108  10.677 
1258 35.14  .  .    98     100  9.899  
1259 35.16  .  .    106    94   10.296 
1260 35.18  .  .    67     88   8.185  
1261 35.20  .  .    59     83   7.681  
1262 35.22  .  .    86     79   9.274  
1263 35.24  .  .    81     75   9      
1264 35.26  .  .    70     72   8.367  
1265 35.28  .  .    75     69   8.66   
1266 35.30  .  .    65     67   8.062  
1267 35.32  .  .    67     65   8.185  
1268 35.34  .  .    47     63   6.856  
1269 35.36  .  .    56     61   7.483  
1270 35.38  .  .    56     60   7.483  
1271 35.40  .  .    56     59   7.483  
1272 35.42  .  .    53     57   7.28   
1273 35.44  .  .    64     56   8      
1274 35.46  .  .    59     55   7.681  
1275 35.48  .  .    39     47   6.245  
1276 35.50  .  .    36     46   6      
1277 35.52  .  .    42     46   6.481  
1278 35.54  .  .    38     45   6.164  
1279 35.56  .  .    53     45   7.28   
1280 35.58  .  .    32     41   5.657  
1281 35.60  .  .    53     41   7.28   
1282 35.62  .  .    43     42   6.557  
1283 35.64  .  .    50     42   7.071  
1284 35.66  .  .    37     42   6.083  
1285 35.68  .  .    38     42   6.164  
1286 35.70  .  .    46     42   6.782  
1287 35.72  .  .    50     43   7.071  
1288 35.74  .  .    43     43   6.557  
1289 35.76  .  .    62     43   7.874  
1290 35.78  .  .    47     43   6.856  
1291 35.80  .  .    49     43   7      
1292 35.82  .  .    50     43   7.071  
1293 35.84  .  .    53     43   7.28   
1294 35.86  .  .    62     44   7.874  
1295 35.88  .  .    32     44   5.657  
1296 35.90  .  .    46     44   6.782  
1297 35.92  .  .    42     44   6.481  
1298 35.94  .  .    59     44   7.681  
1299 35.96  .  .    33     45   5.745  
1300 35.98  .  .    47     45   6.856  
1301 36.00  .  .    56     46   7.483  
1302 36.02  .  .    38     46   6.164  
1303 36.04  .  .    30     47   5.477  
1304 36.06  .  .    62     47   7.874  
1305 36.08  .  .    39     48   6.245  
1306 36.10  .  .    59     49   7.681  
1307 36.12  .  .    56     50   7.483  
1308 36.14  .  .    50     51   7.071  
1309 36.16  .  .    50     53   7.071  
1310 36.18  .  .    53     55   7.28   
1311 36.20  .  .    47     57   6.856  
1312 36.22  .  .    53     61   7.28   
1313 36.24  .  .    64     65   8      
1314 36.26  .  .    75     70   8.66   
1315 36.28  .  .    92     78   9.592  
1316 36.30  .  .    90     93   9.487  
1317 36.32  .  .    96     105  9.798  
1318 36.34  .  .    114    123  10.677 
1319 36.36  .  .    146    148  12.083 
1320 36.38  .  .    176    186  13.266 
1321 36.40  .  .    219    229  14.799 
1322 36.42  .  .    234    267  15.297 
1323 36.44  .  .    252    281  15.875 
1324 36.46  .  .    228    262  15.1   
1325 36.48  .  .    201    236  14.177 
1326 36.50  .  .    222    220  14.9   
1327 36.52  .  .    184    208  13.565 
1328 36.54  .  .    184    188  13.565 
1329 36.56  .  .    184    159  13.565 
1330 36.58  .  .    144    131  12     
1331 36.60  .  .    88     111  9.381  
1332 36.62  .  .    90     98   9.487  
1333 36.64  .  .    82     90   9.055  
1334 36.66  .  .    77     84   8.775  
1335 36.68  .  .    96     81   9.798  
1336 36.70  .  .    88     79   9.381  
1337 36.72  .  .    86     78   9.274  
1338 36.74  .  .    82     78   9.055  
1339 36.76  .  .    90     78   9.487  
1340 36.78  .  .    82     79   9.055  
1341 36.80  .  .    79     81   8.888  
1342 36.82  .  .    102    83   10.1   
1343 36.84  .  .    92     85   9.592  
1344 36.86  .  .    88     88   9.381  
1345 36.88  .  .    98     92   9.899  
1346 36.90  .  .    108    96   10.392 
1347 36.92  .  .    90     101  9.487  
1348 36.94  .  .    104    107  10.198 
1349 36.96  .  .    116    114  10.77  
1350 36.98  .  .    127    122  11.269 
1351 37.00  .  .    129    131  11.358 
1352 37.02  .  .    139    143  11.79  
1353 37.04  .  .    163    157  12.767 
1354 37.06  .  .    182    174  13.491 
1355 37.08  .  .    182    196  13.491 
1356 37.10  .  .    222    221  14.9   
1357 37.12  .  .    243    254  15.588 
1358 37.14  .  .    302    297  17.378 
1359 37.16  .  .    334    352  18.276 
1360 37.18  .  .    420    424  20.494 
1361 37.20  .  .    510    520  22.583 
1362 37.22  .  .    655    647  25.593 
1363 37.24  .  .    835    813  28.896 
1364 37.26  .  .    1075   1023 32.787 
1365 37.28  .  .    1310   1260 36.194 
1366 37.30  .  .    1406   1476 37.497 
1367 37.32  .  .    1482   1600 38.497 
1368 37.34  .  .    1497   1581 38.691 
1369 37.36  .  .    1474   1467 38.393 
1370 37.38  .  .    1354   1346 36.797 
1371 37.40  .  .    1197   1238 34.598 
1372 37.42  .  .    1075   1113 32.787 
1373 37.44  .  .    918    946  30.299 
1374 37.46  .  .    734    764  27.092 
1375 37.48  .  .    620    604  24.9   
1376 37.50  .  .    510    478  22.583 
1377 37.52  .  .    372    384  19.287 
1378 37.54  .  .    338    314  18.385 
1379 37.56  .  .    289    263  17     
1380 37.58  .  .    219    224  14.799 
1381 37.60  .  .    198    194  14.071 
1382 37.62  .  .    163    171  12.767 
1383 37.64  .  .    169    153  13     
1384 37.66  .  .    151    139  12.288 
1385 37.68  .  .    136    127  11.662 
1386 37.70  .  .    125    118  11.18  
1387 37.72  .  .    98     111  9.899  
1388 37.74  .  .    112    105  10.583 
1389 37.76  .  .    121    101  11     
1390 37.78  .  .    84     98   9.165  
1391 37.80  .  .    102    97   10.1   
1392 37.82  .  .    102    97   10.1   
1393 37.84  .  .    118    100  10.863 
1394 37.86  .  .    125    104  11.18  
1395 37.88  .  .    114    110  10.677 
1396 37.90  .  .    129    116  11.358 
1397 37.92  .  .    121    118  11     
1398 37.94  .  .    116    115  10.77  
1399 37.96  .  .    112    109  10.583 
1400 37.98  .  .    94     103  9.695  
1401 38.00  .  .    86     98   9.274  
1402 38.02  .  .    108    93   10.392 
1403 38.04  .  .    86     86   9.274  
1404 38.06  .  .    86     79   9.274  
1405 38.08  .  .    56     72   7.483  
1406 38.10  .  .    82     67   9.055  
1407 38.12  .  .    50     63   7.071  
1408 38.14  .  .    56     60   7.483  
1409 38.16  .  .    70     58   8.367  
1410 38.18  .  .    56     56   7.483  
1411 38.20  .  .    50     54   7.071  
1412 38.22  .  .    50     47   7.071  
1413 38.24  .  .    50     47   7.071  
1414 38.26  .  .    49     46   7      
1415 38.28  .  .    47     45   6.856  
1416 38.30  .  .    43     42   6.557  
1417 38.32  .  .    43     42   6.557  
1418 38.34  .  .    43     42   6.557  
1419 38.36  .  .    43     41   6.557  
1420 38.38  .  .    43     41   6.557  
1421 38.40  .  .    43     41   6.557  
1422 38.42  .  .    43     41   6.557  
1423 38.44  .  .    43     41   6.557  
1424 38.46  .  .    43     41   6.557  
1425 38.48  .  .    43     41   6.557  
1426 38.50  .  .    43     41   6.557  
1427 38.52  .  .    43     41   6.557  
1428 38.54  .  .    47     40   6.856  
1429 38.56  .  .    53     40   7.28   
1430 38.58  .  .    53     40   7.28   
1431 38.60  .  .    53     40   7.28   
1432 38.62  .  .    42     40   6.481  
1433 38.64  .  .    49     40   7      
1434 38.66  .  .    38     40   6.164  
1435 38.68  .  .    43     40   6.557  
1436 38.70  .  .    43     40   6.557  
1437 38.72  .  .    38     40   6.164  
1438 38.74  .  .    39     40   6.245  
1439 38.76  .  .    50     40   7.071  
1440 38.78  .  .    38     40   6.164  
1441 38.80  .  .    37     40   6.083  
1442 38.82  .  .    43     40   6.557  
1443 38.84  .  .    32     40   5.657  
1444 38.86  .  .    49     40   7      
1445 38.88  .  .    26     40   5.099  
1446 38.90  .  .    33     40   5.745  
1447 38.92  .  .    43     40   6.557  
1448 38.94  .  .    36     40   6      
1449 38.96  .  .    32     40   5.657  
1450 38.98  .  .    38     40   6.164  
1451 39.00  .  .    39     40   6.245  
1452 39.02  .  .    36     40   6      
1453 39.04  .  .    38     40   6.164  
1454 39.06  .  .    43     40   6.557  
1455 39.08  .  .    47     39   6.856  
1456 39.10  .  .    42     39   6.481  
1457 39.12  .  .    32     39   5.657  
1458 39.14  .  .    36     39   6      
1459 39.16  .  .    38     39   6.164  
1460 39.18  .  .    53     39   7.28   
1461 39.20  .  .    50     39   7.071  
1462 39.22  .  .    50     39   7.071  
1463 39.24  .  .    32     39   5.657  
1464 39.26  .  .    47     39   6.856  
1465 39.28  .  .    50     39   7.071  
1466 39.30  .  .    50     39   7.071  
1467 39.32  .  .    38     39   6.164  
1468 39.34  .  .    33     39   5.745  
1469 39.36  .  .    46     39   6.782  
1470 39.38  .  .    38     39   6.164  
1471 39.40  .  .    38     39   6.164  
1472 39.42  .  .    32     39   5.657  
1473 39.44  .  .    43     39   6.557  
1474 39.46  .  .    43     39   6.557  
1475 39.48  .  .    30     39   5.477  
1476 39.50  .  .    43     39   6.557  
1477 39.52  .  .    30     39   5.477  
1478 39.54  .  .    53     39   7.28   
1479 39.56  .  .    43     39   6.557  
1480 39.58  .  .    39     39   6.245  
1481 39.60  .  .    36     39   6      
1482 39.62  .  .    32     39   5.657  
1483 39.64  .  .    37     39   6.083  
1484 39.66  .  .    38     39   6.164  
1485 39.68  .  .    26     39   5.099  
1486 39.70  .  .    38     39   6.164  
1487 39.72  .  .    43     39   6.557  
1488 39.74  .  .    38     39   6.164  
1489 39.76  .  .    29     39   5.385  
1490 39.78  .  .    47     39   6.856  
1491 39.80  .  .    43     39   6.557  
1492 39.82  .  .    28     39   5.292  
1493 39.84  .  .    38     39   6.164  
1494 39.86  .  .    38     39   6.164  
1495 39.88  .  .    38     39   6.164  
1496 39.90  .  .    38     39   6.164  
1497 39.92  .  .    47     39   6.856  
1498 39.94  .  .    38     39   6.164  
1499 39.96  .  .    43     39   6.557  
1500 39.98  .  .    38     39   6.164  
1501 40.00  .  .    38     39   6.164  
1502 40.02  .  .    50     39   7.071  
1503 40.04  .  .    56     39   7.483  
1504 40.06  .  .    38     39   6.164  
1505 40.08  .  .    38     39   6.164  
1506 40.10  .  .    43     39   6.557  
1507 40.12  .  .    30     39   5.477  
1508 40.14  .  .    39     39   6.245  
1509 40.16  .  .    42     39   6.481  
1510 40.18  .  .    46     40   6.782  
1511 40.20  .  .    42     40   6.481  
1512 40.22  .  .    39     40   6.245  
1513 40.24  .  .    49     40   7      
1514 40.26  .  .    46     40   6.782  
1515 40.28  .  .    43     40   6.557  
1516 40.30  .  .    32     40   5.657  
1517 40.32  .  .    36     41   6      
1518 40.34  .  .    36     41   6      
1519 40.36  .  .    43     42   6.557  
1520 40.38  .  .    38     42   6.164  
1521 40.40  .  .    47     42   6.856  
1522 40.42  .  .    42     42   6.481  
1523 40.44  .  .    36     42   6      
1524 40.46  .  .    72     42   8.485  
1525 40.48  .  .    25     43   5      
1526 40.50  .  .    31     43   5.568  
1527 40.52  .  .    50     43   7.071  
1528 40.54  .  .    30     43   5.477  
1529 40.56  .  .    36     44   6      
1530 40.58  .  .    42     44   6.481  
1531 40.60  .  .    47     44   6.856  
1532 40.62  .  .    47     45   6.856  
1533 40.64  .  .    50     45   7.071  
1534 40.66  .  .    56     45   7.483  
1535 40.68  .  .    38     46   6.164  
1536 40.70  .  .    43     47   6.557  
1537 40.72  .  .    46     47   6.782  
1538 40.74  .  .    38     48   6.164  
1539 40.76  .  .    43     49   6.557  
1540 40.78  .  .    46     50   6.782  
1541 40.80  .  .    53     51   7.28   
1542 40.82  .  .    53     52   7.28   
1543 40.84  .  .    50     53   7.071  
1544 40.86  .  .    47     55   6.856  
1545 40.88  .  .    59     57   7.681  
1546 40.90  .  .    50     59   7.071  
1547 40.92  .  .    56     62   7.483  
1548 40.94  .  .    59     65   7.681  
1549 40.96  .  .    65     69   8.062  
1550 40.98  .  .    72     74   8.485  
1551 41.00  .  .    70     81   8.367  
1552 41.02  .  .    86     89   9.274  
1553 41.04  .  .    96     99   9.798  
1554 41.06  .  .    118    113  10.863 
1555 41.08  .  .    139    132  11.79  
1556 41.10  .  .    151    157  12.288 
1557 41.12  .  .    198    191  14.071 
1558 41.14  .  .    275    238  16.583 
1559 41.16  .  .    299    299  17.292 
1560 41.18  .  .    364    367  19.079 
1561 41.20  .  .    400    421  20     
1562 41.22  .  .    428    434  20.688 
1563 41.24  .  .    436    404  20.881 
1564 41.26  .  .    416    365  20.396 
1565 41.28  .  .    361    339  19     
1566 41.30  .  .    338    323  18.385 
1567 41.32  .  .    306    300  17.493 
1568 41.34  .  .    249    260  15.78  
1569 41.36  .  .    222    213  14.9   
1570 41.38  .  .    166    172  12.884 
1571 41.40  .  .    129    141  11.358 
1572 41.42  .  .    129    118  11.358 
1573 41.44  .  .    108    102  10.392 
1574 41.46  .  .    110    90   10.488 
1575 41.48  .  .    92     80   9.592  
1576 41.50  .  .    82     74   9.055  
1577 41.52  .  .    90     68   9.487  
1578 41.54  .  .    88     64   9.381  
1579 41.56  .  .    56     61   7.483  
1580 41.58  .  .    59     58   7.681  
1581 41.60  .  .    62     55   7.874  
1582 41.62  .  .    49     54   7      
1583 41.64  .  .    47     53   6.856  
1584 41.66  .  .    53     51   7.28   
1585 41.68  .  .    56     50   7.483  
1586 41.70  .  .    53     49   7.28   
1587 41.72  .  .    59     49   7.681  
1588 41.74  .  .    50     49   7.071  
1589 41.76  .  .    38     48   6.164  
1590 41.78  .  .    42     48   6.481  
1591 41.80  .  .    50     47   7.071  
1592 41.82  .  .    38     48   6.164  
1593 41.84  .  .    50     47   7.071  
1594 41.86  .  .    42     47   6.481  
1595 41.88  .  .    46     47   6.782  
1596 41.90  .  .    46     47   6.782  
1597 41.92  .  .    53     46   7.28   
1598 41.94  .  .    39     46   6.245  
1599 41.96  .  .    38     46   6.164  
1600 41.98  .  .    38     47   6.164  
1601 42.00  .  .    37     47   6.083  
1602 42.02  .  .    50     48   7.071  
1603 42.04  .  .    43     48   6.557  
1604 42.06  .  .    38     49   6.164  
1605 42.08  .  .    43     50   6.557  
1606 42.10  .  .    43     51   6.557  
1607 42.12  .  .    30     51   5.477  
1608 42.14  .  .    46     53   6.782  
1609 42.16  .  .    47     55   6.856  
1610 42.18  .  .    64     59   8      
1611 42.20  .  .    59     63   7.681  
1612 42.22  .  .    70     68   8.367  
1613 42.24  .  .    75     74   8.66   
1614 42.26  .  .    88     80   9.381  
1615 42.28  .  .    98     83   9.899  
1616 42.30  .  .    79     82   8.888  
1617 42.32  .  .    102    82   10.1   
1618 42.34  .  .    75     83   8.66   
1619 42.36  .  .    82     87   9.055  
1620 42.38  .  .    96     91   9.798  
1621 42.40  .  .    81     95   9      
1622 42.42  .  .    98     100  9.899  
1623 42.44  .  .    104    109  10.198 
1624 42.46  .  .    102    122  10.1   
1625 42.48  .  .    144    141  12     
1626 42.50  .  .    184    167  13.565 
1627 42.52  .  .    184    200  13.565 
1628 42.54  .  .    216    234  14.697 
1629 42.56  .  .    246    262  15.684 
1630 42.58  .  .    292    282  17.088 
1631 42.60  .  .    302    302  17.378 
1632 42.62  .  .    292    327  17.088 
1633 42.64  .  .    316    347  17.776 
1634 42.66  .  .    342    345  18.493 
1635 42.68  .  .    342    319  18.493 
1636 42.70  .  .    289    283  17     
1637 42.72  .  .    272    254  16.492 
1638 42.74  .  .    213    233  14.595 
1639 42.76  .  .    198    212  14.071 
1640 42.78  .  .    182    185  13.491 
1641 42.80  .  .    148    156  12.166 
1642 42.82  .  .    136    130  11.662 
1643 42.84  .  .    108    115  10.392 
1644 42.86  .  .    84     100  9.165  
1645 42.88  .  .    72     89   8.485  
1646 42.90  .  .    86     81   9.274  
1647 42.92  .  .    59     75   7.681  
1648 42.94  .  .    72     73   8.485  
1649 42.96  .  .    77     70   8.775  
1650 42.98  .  .    37     67   6.083  
1651 43.00  .  .    62     65   7.874  
1652 43.02  .  .    59     64   7.681  
1653 43.04  .  .    50     62   7.071  
1654 43.06  .  .    56     62   7.483  
1655 43.08  .  .    67     61   8.185  
1656 43.10  .  .    38     61   6.164  
1657 43.12  .  .    49     61   7      
1658 43.14  .  .    50     61   7.071  
1659 43.16  .  .    50     62   7.071  
1660 43.18  .  .    43     62   6.557  
1661 43.20  .  .    65     63   8.062  
1662 43.22  .  .    43     64   6.557  
1663 43.24  .  .    43     65   6.557  
1664 43.26  .  .    50     66   7.071  
1665 43.28  .  .    53     68   7.28   
1666 43.30  .  .    50     70   7.071  
1667 43.32  .  .    53     72   7.28   
1668 43.34  .  .    67     74   8.185  
1669 43.36  .  .    79     77   8.888  
1670 43.38  .  .    75     81   8.66   
1671 43.40  .  .    72     85   8.485  
1672 43.42  .  .    90     89   9.487  
1673 43.44  .  .    70     94   8.367  
1674 43.46  .  .    90     101  9.487  
1675 43.48  .  .    92     109  9.592  
1676 43.50  .  .    125    119  11.18  
1677 43.52  .  .    123    131  11.091 
1678 43.54  .  .    144    145  12     
1679 43.56  .  .    156    164  12.49  
1680 43.58  .  .    196    188  14     
1681 43.60  .  .    198    218  14.071 
1682 43.62  .  .    240    258  15.492 
1683 43.64  .  .    302    312  17.378 
1684 43.66  .  .    345    385  18.574 
1685 43.68  .  .    466    484  21.587 
1686 43.70  .  .    590    618  24.29  
1687 43.72  .  .    823    789  28.688 
1688 43.74  .  .    998    981  31.591 
1689 43.76  .  .    1156   1139 34     
1690 43.78  .  .    1239   1191 35.199 
1691 43.80  .  .    1197   1118 34.598 
1692 43.82  .  .    1149   1001 33.897 
1693 43.84  .  .    1062   914  32.588 
1694 43.86  .  .    918    867  30.299 
1695 43.88  .  .    835    823  28.896 
1696 43.90  .  .    778    739  27.893 
1697 43.92  .  .    640    615  25.298 
1698 43.94  .  .    542    489  23.281 
1699 43.96  .  .    400    385  20     
1700 43.98  .  .    289    307  17     
1701 44.00  .  .    249    250  15.78  
1702 44.02  .  .    193    208  13.892 
1703 44.04  .  .    144    177  12     
1704 44.06  .  .    134    154  11.576 
1705 44.08  .  .    125    135  11.18  
1706 44.10  .  .    96     121  9.798  
1707 44.12  .  .    77     110  8.775  
1708 44.14  .  .    96     100  9.798  
1709 44.16  .  .    102    93   10.1   
1710 44.18  .  .    72     86   8.485  
1711 44.20  .  .    72     81   8.485  
1712 44.22  .  .    67     77   8.185  
1713 44.24  .  .    90     73   9.487  
1714 44.26  .  .    65     69   8.062  
1715 44.28  .  .    56     66   7.483  
1716 44.30  .  .    47     64   6.856  
1717 44.32  .  .    46     62   6.782  
1718 44.34  .  .    65     60   8.062  
1719 44.36  .  .    59     58   7.681  
1720 44.38  .  .    53     56   7.28   
1721 44.40  .  .    38     55   6.164  
1722 44.42  .  .    50     54   7.071  
1723 44.44  .  .    49     53   7      
1724 44.46  .  .    47     52   6.856  
1725 44.48  .  .    33     51   5.745  
1726 44.50  .  .    38     50   6.164  
1727 44.52  .  .    59     49   7.681  
1728 44.54  .  .    47     49   6.856  
1729 44.56  .  .    50     48   7.071  
1730 44.58  .  .    43     41   6.557  
1731 44.60  .  .    50     41   7.071  
1732 44.62  .  .    50     41   7.071  
1733 44.64  .  .    56     41   7.483  
1734 44.66  .  .    53     41   7.28   
1735 44.68  .  .    37     40   6.083  
1736 44.70  .  .    50     37   7.071  
1737 44.72  .  .    47     37   6.856  
1738 44.74  .  .    37     37   6.083  
1739 44.76  .  .    46     37   6.782  
1740 44.78  .  .    38     37   6.164  
1741 44.80  .  .    39     38   6.245  
1742 44.82  .  .    47     38   6.856  
1743 44.84  .  .    32     38   5.657  
1744 44.86  .  .    56     38   7.483  
1745 44.88  .  .    43     41   6.557  
1746 44.90  .  .    47     41   6.856  
1747 44.92  .  .    42     41   6.481  
1748 44.94  .  .    39     42   6.245  
1749 44.96  .  .    47     42   6.856  
1750 44.98  .  .    32     43   5.657  
1751 45.00  .  .    50     44   7.071  
1752 45.02  .  .    50     45   7.071  
1753 45.04  .  .    33     45   5.745  
1754 45.06  .  .    37     45   6.083  
1755 45.08  .  .    43     46   6.557  
1756 45.10  .  .    53     46   7.28   
1757 45.12  .  .    47     46   6.856  
1758 45.14  .  .    43     47   6.557  
1759 45.16  .  .    56     47   7.483  
1760 45.18  .  .    39     47   6.245  
1761 45.20  .  .    50     48   7.071  
1762 45.22  .  .    53     48   7.28   
1763 45.24  .  .    49     49   7      
1764 45.26  .  .    50     50   7.071  
1765 45.28  .  .    53     51   7.28   
1766 45.30  .  .    65     53   8.062  
1767 45.32  .  .    47     54   6.856  
1768 45.34  .  .    49     56   7      
1769 45.36  .  .    53     58   7.28   
1770 45.38  .  .    67     61   8.185  
1771 45.40  .  .    72     65   8.485  
1772 45.42  .  .    65     69   8.062  
1773 45.44  .  .    70     75   8.367  
1774 45.46  .  .    100    83   10     
1775 45.48  .  .    112    92   10.583 
1776 45.50  .  .    104    102  10.198 
1777 45.52  .  .    129    109  11.358 
1778 45.54  .  .    125    112  11.18  
1779 45.56  .  .    132    112  11.489 
1780 45.58  .  .    141    112  11.874 
1781 45.60  .  .    118    114  10.863 
1782 45.62  .  .    146    119  12.083 
1783 45.64  .  .    134    124  11.576 
1784 45.66  .  .    141    130  11.874 
1785 45.68  .  .    136    137  11.662 
1786 45.70  .  .    153    146  12.369 
1787 45.72  .  .    134    160  11.576 
1788 45.74  .  .    182    181  13.491 
1789 45.76  .  .    201    210  14.177 
1790 45.78  .  .    219    250  14.799 
1791 45.80  .  .    299    304  17.292 
1792 45.82  .  .    392    376  19.799 
1793 45.84  .  .    475    462  21.794 
1794 45.86  .  .    580    552  24.083 
1795 45.88  .  .    665    616  25.788 
1796 45.90  .  .    676    627  26     
1797 45.92  .  .    645    588  25.397 
1798 45.94  .  .    605    535  24.597 
1799 45.96  .  .    566    495  23.791 
1800 45.98  .  .    529    472  23     
1801 46.00  .  .    488    450  22.091 
1802 46.02  .  .    432    412  20.785 
1803 46.04  .  .    368    355  19.183 
1804 46.06  .  .    313    294  17.692 
1805 46.08  .  .    228    242  15.1   
1806 46.10  .  .    182    201  13.491 
1807 46.12  .  .    141    170  11.874 
1808 46.14  .  .    132    148  11.489 
1809 46.16  .  .    123    131  11.091 
1810 46.18  .  .    100    119  10     
1811 46.20  .  .    90     110  9.487  
1812 46.22  .  .    94     103  9.695  
1813 46.24  .  .    90     99   9.487  
1814 46.26  .  .    94     96   9.695  
1815 46.28  .  .    102    95   10.1   
1816 46.30  .  .    106    96   10.296 
1817 46.32  .  .    100    98   10     
1818 46.34  .  .    90     103  9.487  
1819 46.36  .  .    116    110  10.77  
1820 46.38  .  .    112    120  10.583 
1821 46.40  .  .    141    135  11.874 
1822 46.42  .  .    151    155  12.288 
1823 46.44  .  .    193    180  13.892 
1824 46.46  .  .    222    208  14.9   
1825 46.48  .  .    243    231  15.588 
1826 46.50  .  .    262    243  16.186 
1827 46.52  .  .    246    236  15.684 
1828 46.54  .  .    228    220  15.1   
1829 46.56  .  .    219    204  14.799 
1830 46.58  .  .    204    193  14.283 
1831 46.60  .  .    193    186  13.892 
1832 46.62  .  .    187    176  13.675 
1833 46.64  .  .    158    160  12.57  
1834 46.66  .  .    148    140  12.166 
1835 46.68  .  .    116    120  10.77  
1836 46.70  .  .    108    104  10.392 
1837 46.72  .  .    88     91   9.381  
1838 46.74  .  .    79     82   8.888  
1839 46.76  .  .    77     71   8.775  
1840 46.78  .  .    56     65   7.483  
1841 46.80  .  .    49     61   7      
1842 46.82  .  .    42     58   6.481  
1843 46.84  .  .    28     55   5.292  
1844 46.86  .  .    39     53   6.245  
1845 46.88  .  .    38     49   6.164  
1846 46.90  .  .    47     48   6.856  
1847 46.92  .  .    36     46   6      
1848 46.94  .  .    32     45   5.657  
1849 46.96  .  .    53     45   7.28   
1850 46.98  .  .    43     44   6.557  
1851 47.00  .  .    38     43   6.164  
1852 47.02  .  .    30     43   5.477  
1853 47.04  .  .    49     42   7      
1854 47.06  .  .    39     42   6.245  
1855 47.08  .  .    53     42   7.28   
1856 47.10  .  .    32     42   5.657  
1857 47.12  .  .    31     42   5.568  
1858 47.14  .  .    42     45   6.481  
1859 47.16  .  .    36     46   6      
1860 47.18  .  .    53     46   7.28   
1861 47.20  .  .    46     47   6.782  
1862 47.22  .  .    50     48   7.071  
1863 47.24  .  .    39     49   6.245  
1864 47.26  .  .    56     50   7.483  
1865 47.28  .  .    43     57   6.557  
1866 47.30  .  .    59     60   7.681  
1867 47.32  .  .    62     63   7.874  
1868 47.34  .  .    70     64   8.367  
1869 47.36  .  .    72     64   8.485  
1870 47.38  .  .    106    63   10.296 
1871 47.40  .  .    72     62   8.485  
1872 47.42  .  .    46     61   6.782  
1873 47.44  .  .    70     61   8.367  
1874 47.46  .  .    77     62   8.775  
1875 47.48  .  .    59     61   7.681  
1876 47.50  .  .    59     61   7.681  
1877 47.52  .  .    53     62   7.28   
1878 47.54  .  .    70     62   8.367  
1879 47.56  .  .    72     62   8.485  
1880 47.58  .  .    49     63   7      
1881 47.60  .  .    53     64   7.28   
1882 47.62  .  .    65     65   8.062  
1883 47.64  .  .    82     66   9.055  
1884 47.66  .  .    81     68   9      
1885 47.68  .  .    59     69   7.681  
1886 47.70  .  .    67     72   8.185  
1887 47.72  .  .    70     74   8.367  
1888 47.74  .  .    75     77   8.66   
1889 47.76  .  .    67     80   8.185  
1890 47.78  .  .    65     84   8.062  
1891 47.80  .  .    82     89   9.055  
1892 47.82  .  .    84     95   9.165  
1893 47.84  .  .    96     102  9.798  
1894 47.86  .  .    110    109  10.488 
1895 47.88  .  .    102    117  10.1   
1896 47.90  .  .    116    124  10.77  
1897 47.92  .  .    112    132  10.583 
1898 47.94  .  .    136    141  11.662 
1899 47.96  .  .    148    152  12.166 
1900 47.98  .  .    148    167  12.166 
1901 48.00  .  .    182    184  13.491 
1902 48.02  .  .    210    206  14.491 
1903 48.04  .  .    201    234  14.177 
1904 48.06  .  .    262    268  16.186 
1905 48.08  .  .    353    313  18.788 
1906 48.10  .  .    353    372  18.788 
1907 48.12  .  .    424    449  20.591 
1908 48.14  .  .    566    550  23.791 
1909 48.16  .  .    645    677  25.397 
1910 48.18  .  .    835    824  28.896 
1911 48.20  .  .    979    965  31.289 
1912 48.22  .  .    1030   1066 32.094 
1913 48.24  .  .    1122   1108 33.496 
1914 48.26  .  .    1156   1119 34     
1915 48.28  .  .    1190   1146 34.496 
1916 48.30  .  .    1296   1205 36     
1917 48.32  .  .    1288   1259 35.889 
1918 48.34  .  .    1211   1244 34.799 
1919 48.36  .  .    1135   1138 33.69  
1920 48.38  .  .    1017   990  31.89  
1921 48.40  .  .    876    857  29.597 
1922 48.42  .  .    789    764  28.089 
1923 48.44  .  .    734    697  27.092 
1924 48.46  .  .    580    630  24.083 
1925 48.48  .  .    533    544  23.087 
1926 48.50  .  .    492    450  22.181 
1927 48.52  .  .    408    368  20.199 
1928 48.54  .  .    302    304  17.378 
1929 48.56  .  .    216    257  14.697 
1930 48.58  .  .    225    221  15     
1931 48.60  .  .    201    195  14.177 
1932 48.62  .  .    207    174  14.387 
1933 48.64  .  .    141    159  11.874 
1934 48.66  .  .    129    147  11.358 
1935 48.68  .  .    125    138  11.18  
1936 48.70  .  .    104    131  10.198 
1937 48.72  .  .    129    126  11.358 
1938 48.74  .  .    96     123  9.798  
1939 48.76  .  .    102    121  10.1   
1940 48.78  .  .    121    121  11     
1941 48.80  .  .    104    123  10.198 
1942 48.82  .  .    136    127  11.662 
1943 48.84  .  .    129    133  11.358 
1944 48.86  .  .    129    142  11.358 
1945 48.88  .  .    153    156  12.369 
1946 48.90  .  .    166    175  12.884 
1947 48.92  .  .    169    201  13     
1948 48.94  .  .    190    236  13.784 
1949 48.96  .  .    228    281  15.1   
1950 48.98  .  .    309    336  17.578 
1951 49.00  .  .    408    397  20.199 
1952 49.02  .  .    457    451  21.378 
1953 49.04  .  .    470    476  21.679 
1954 49.06  .  .    479    460  21.886 
1955 49.08  .  .    457    416  21.378 
1956 49.10  .  .    380    375  19.494 
1957 49.12  .  .    368    349  19.183 
1958 49.14  .  .    309    337  17.578 
1959 49.16  .  .    320    316  17.889 
1960 49.18  .  .    272    291  16.492 
1961 49.20  .  .    252    250  15.875 
1962 49.22  .  .    234    206  15.297 
1963 49.24  .  .    196    169  14     
1964 49.26  .  .    134    141  11.576 
1965 49.28  .  .    88     120  9.381  
1966 49.30  .  .    92     100  9.592  
1967 49.32  .  .    96     89   9.798  
1968 49.34  .  .    75     80   8.66   
1969 49.36  .  .    70     73   8.367  
1970 49.38  .  .    62     68   7.874  
1971 49.40  .  .    62     64   7.874  
1972 49.42  .  .    64     60   8      
1973 49.44  .  .    65     58   8.062  
1974 49.46  .  .    50     55   7.071  
1975 49.48  .  .    50     54   7.071  
1976 49.50  .  .    50     52   7.071  
1977 49.52  .  .    47     50   6.856  
1978 49.54  .  .    47     49   6.856  
1979 49.56  .  .    43     48   6.557  
1980 49.58  .  .    50     48   7.071  
1981 49.60  .  .    32     47   5.657  
1982 49.62  .  .    49     46   7      
1983 49.64  .  .    56     46   7.483  
1984 49.66  .  .    46     45   6.782  
1985 49.68  .  .    36     45   6      
1986 49.70  .  .    47     45   6.856  
1987 49.72  .  .    56     45   7.483  
1988 49.74  .  .    53     45   7.28   
1989 49.76  .  .    49     45   7      
1990 49.78  .  .    38     45   6.164  
1991 49.80  .  .    49     45   7      
1992 49.82  .  .    53     45   7.28   
1993 49.84  .  .    47     46   6.856  
1994 49.86  .  .    50     47   7.071  
1995 49.88  .  .    38     48   6.164  
1996 49.90  .  .    42     49   6.481  
1997 49.92  .  .    43     51   6.557  
1998 49.94  .  .    42     52   6.481  
1999 49.96  .  .    62     55   7.874  
2000 49.98  .  .    56     59   7.483  
2001 50.00  .  .    65     64   8.062  
2002 50.02  .  .    77     68   8.775  
2003 50.04  .  .    64     70   8      
2004 50.06  .  .    65     70   8.062  
2005 50.08  .  .    75     67   8.66   
2006 50.10  .  .    70     66   8.367  
2007 50.12  .  .    50     65   7.071  
2008 50.14  .  .    62     66   7.874  
2009 50.16  .  .    67     67   8.185  
2010 50.18  .  .    53     67   7.28   
2011 50.20  .  .    65     67   8.062  
2012 50.22  .  .    62     67   7.874  
2013 50.24  .  .    65     69   8.062  
2014 50.26  .  .    62     72   7.874  
2015 50.28  .  .    86     77   9.274  
2016 50.30  .  .    59     84   7.681  
2017 50.32  .  .    98     95   9.899  
2018 50.34  .  .    92     110  9.592  
2019 50.36  .  .    94     128  9.695  
2020 50.38  .  .    125    144  11.18  
2021 50.40  .  .    146    155  12.083 
2022 50.42  .  .    158    161  12.57  
2023 50.44  .  .    153    165  12.369 
2024 50.46  .  .    179    173  13.379 
2025 50.48  .  .    169    183  13     
2026 50.50  .  .    184    187  13.565 
2027 50.52  .  .    187    182  13.675 
2028 50.54  .  .    193    168  13.892 
2029 50.56  .  .    153    153  12.369 
2030 50.58  .  .    169    141  13     
2031 50.60  .  .    132    132  11.489 
2032 50.62  .  .    121    125  11     
2033 50.64  .  .    116    116  10.77  
2034 50.66  .  .    112    105  10.583 
2035 50.68  .  .    88     94   9.381  
2036 50.70  .  .    82     84   9.055  
2037 50.72  .  .    75     77   8.66   
2038 50.74  .  .    53     71   7.28   
2039 50.76  .  .    47     67   6.856  
2040 50.78  .  .    67     64   8.185  
2041 50.80  .  .    50     62   7.071  
2042 50.82  .  .    56     60   7.483  
2043 50.84  .  .    37     60   6.083  
2044 50.86  .  .    50     59   7.071  
2045 50.88  .  .    62     59   7.874  
2046 50.90  .  .    59     60   7.681  
2047 50.92  .  .    62     61   7.874  
2048 50.94  .  .    59     62   7.681  
2049 50.96  .  .    47     64   6.856  
2050 50.98  .  .    75     67   8.66   
2051 51.00  .  .    53     71   7.28   
2052 51.02  .  .    59     75   7.681  
2053 51.04  .  .    67     81   8.185  
2054 51.06  .  .    70     88   8.367  
2055 51.08  .  .    72     98   8.485  
2056 51.10  .  .    112    110  10.583 
2057 51.12  .  .    116    125  10.77  
2058 51.14  .  .    141    143  11.874 
2059 51.16  .  .    127    162  11.269 
2060 51.18  .  .    158    177  12.57  
2061 51.20  .  .    161    185  12.689 
2062 51.22  .  .    169    189  13     
2063 51.24  .  .    184    192  13.565 
2064 51.26  .  .    193    200  13.892 
2065 51.28  .  .    176    215  13.266 
2066 51.30  .  .    216    239  14.697 
2067 51.32  .  .    275    272  16.583 
2068 51.34  .  .    338    313  18.385 
2069 51.36  .  .    380    358  19.494 
2070 51.38  .  .    396    393  19.9   
2071 51.40  .  .    449    400  21.19  
2072 51.42  .  .    445    374  21.095 
2073 51.44  .  .    441    334  21     
2074 51.46  .  .    324    299  18     
2075 51.48  .  .    306    280  17.493 
2076 51.50  .  .    285    272  16.882 
2077 51.52  .  .    302    266  17.378 
2078 51.54  .  .    265    249  16.279 
2079 51.56  .  .    262    218  16.186 
2080 51.58  .  .    187    184  13.675 
2081 51.60  .  .    139    153  11.79  
2082 51.62  .  .    148    129  12.166 
2083 51.64  .  .    106    110  10.296 
2084 51.66  .  .    98     97   9.899  
2085 51.68  .  .    94     86   9.695  
2086 51.70  .  .    86     78   9.274  
2087 51.72  .  .    72     71   8.485  
2088 51.74  .  .    56     66   7.483  
2089 51.76  .  .    67     67   8.185  
2090 51.78  .  .    72     64   8.485  
2091 51.80  .  .    59     61   7.681  
2092 51.82  .  .    56     59   7.483  
2093 51.84  .  .    56     57   7.483  
2094 51.86  .  .    47     56   6.856  
2095 51.88  .  .    47     55   6.856  
2096 51.90  .  .    53     56   7.28   
2097 51.92  .  .    47     55   6.856  
2098 51.94  .  .    50     55   7.071  
2099 51.96  .  .    36     54   6      
2100 51.98  .  .    32     54   5.657  
2101 52.00  .  .    56     54   7.483  
2102 52.02  .  .    56     54   7.483  
2103 52.04  .  .    37     54   6.083  
2104 52.06  .  .    43     54   6.557  
2105 52.08  .  .    59     55   7.681  
2106 52.10  .  .    53     55   7.28   
2107 52.12  .  .    56     56   7.483  
2108 52.14  .  .    50     56   7.071  
2109 52.16  .  .    56     57   7.483  
2110 52.18  .  .    77     58   8.775  
2111 52.20  .  .    38     59   6.164  
2112 52.22  .  .    67     60   8.185  
2113 52.24  .  .    67     62   8.185  
2114 52.26  .  .    53     64   7.28   
2115 52.28  .  .    56     66   7.483  
2116 52.30  .  .    67     68   8.185  
2117 52.32  .  .    79     69   8.888  
2118 52.34  .  .    59     72   7.681  
2119 52.36  .  .    72     76   8.485  
2120 52.38  .  .    88     79   9.381  
2121 52.40  .  .    104    84   10.198 
2122 52.42  .  .    96     90   9.798  
2123 52.44  .  .    98     98   9.899  
2124 52.46  .  .    110    107  10.488 
2125 52.48  .  .    110    117  10.488 
2126 52.50  .  .    112    130  10.583 
2127 52.52  .  .    156    146  12.49  
2128 52.54  .  .    158    167  12.57  
2129 52.56  .  .    169    193  13     
2130 52.58  .  .    256    227  16     
2131 52.60  .  .    289    271  17     
2132 52.62  .  .    364    328  19.079 
2133 52.64  .  .    436    399  20.881 
2134 52.66  .  .    542    488  23.281 
2135 52.68  .  .    660    600  25.69  
2136 52.70  .  .    734    737  27.092 
2137 52.72  .  .    806    879  28.39  
2138 52.74  .  .    918    976  30.299 
2139 52.76  .  .    906    978  30.1   
2140 52.78  .  .    888    898  29.799 
2141 52.80  .  .    841    796  29     
2142 52.82  .  .    772    720  27.785 
2143 52.84  .  .    670    683  25.884 
2144 52.86  .  .    665    673  25.788 
2145 52.88  .  .    645    657  25.397 
2146 52.90  .  .    571    605  23.896 
2147 52.92  .  .    552    520  23.495 
2148 52.94  .  .    445    428  21.095 
2149 52.96  .  .    357    348  18.894 
2150 52.98  .  .    282    286  16.793 
2151 53.00  .  .    252    241  15.875 
2152 53.02  .  .    210    207  14.491 
2153 53.04  .  .    193    182  13.892 
2154 53.06  .  .    166    164  12.884 
2155 53.08  .  .    144    152  12     
2156 53.10  .  .    171    144  13.077 
2157 53.12  .  .    156    139  12.49  
2158 53.14  .  .    148    136  12.166 
2159 53.16  .  .    121    134  11     
2160 53.18  .  .    153    128  12.369 
2161 53.20  .  .    136    121  11.662 
2162 53.22  .  .    129    115  11.358 
2163 53.24  .  .    129    109  11.358 
2164 53.26  .  .    132    105  11.489 
2165 53.28  .  .    112    103  10.583 
2166 53.30  .  .    121    102  11     
2167 53.32  .  .    92     100  9.592  
2168 53.34  .  .    110    98   10.488 
2169 53.36  .  .    112    101  10.583 
2170 53.38  .  .    102    102  10.1   
2171 53.40  .  .    106    105  10.296 
2172 53.42  .  .    116    109  10.77  
2173 53.44  .  .    112    111  10.583 
2174 53.46  .  .    153    110  12.369 
2175 53.48  .  .    110    106  10.488 
2176 53.50  .  .    110    103  10.488 
2177 53.52  .  .    136    99   11.662 
2178 53.54  .  .    100    97   10     
2179 53.56  .  .    118    97   10.863 
2180 53.58  .  .    94     97   9.695  
2181 53.60  .  .    94     90   9.695  
2182 53.62  .  .    92     88   9.592  
2183 53.64  .  .    96     86   9.798  
2184 53.66  .  .    72     84   8.485  
2185 53.68  .  .    86     83   9.274  
2186 53.70  .  .    79     83   8.888  
2187 53.72  .  .    72     85   8.485  
2188 53.74  .  .    82     84   9.055  
2189 53.76  .  .    70     88   8.367  
2190 53.78  .  .    92     92   9.592  
2191 53.80  .  .    110    98   10.488 
2192 53.82  .  .    112    105  10.583 
2193 53.84  .  .    144    114  12     
2194 53.86  .  .    127    125  11.269 
2195 53.88  .  .    144    139  12     
2196 53.90  .  .    136    157  11.662 
2197 53.92  .  .    156    181  12.49  
2198 53.94  .  .    210    211  14.491 
2199 53.96  .  .    207    249  14.387 
2200 53.98  .  .    295    296  17.176 
2201 54.00  .  .    327    350  18.083 
2202 54.02  .  .    327    403  18.083 
2203 54.04  .  .    396    445  19.9   
2204 54.06  .  .    466    475  21.587 
2205 54.08  .  .    510    499  22.583 
2206 54.10  .  .    552    515  23.495 
2207 54.12  .  .    538    516  23.195 
2208 54.14  .  .    488    499  22.091 
2209 54.16  .  .    475    474  21.794 
2210 54.18  .  .    453    449  21.284 
2211 54.20  .  .    428    428  20.688 
2212 54.22  .  .    449    412  21.19  
2213 54.24  .  .    441    401  21     
2214 54.26  .  .    432    389  20.785 
2215 54.28  .  .    372    373  19.287 
2216 54.30  .  .    404    358  20.1   
2217 54.32  .  .    376    353  19.391 
2218 54.34  .  .    357    362  18.894 
2219 54.36  .  .    420    388  20.494 
2220 54.38  .  .    436    432  20.881 
2221 54.40  .  .    519    498  22.782 
2222 54.42  .  .    556    584  23.58  
2223 54.44  .  .    660    684  25.69  
2224 54.46  .  .    723    777  26.889 
2225 54.48  .  .    745    832  27.295 
2226 54.50  .  .    806    827  28.39  
2227 54.52  .  .    734    775  27.092 
2228 54.54  .  .    691    712  26.287 
2229 54.56  .  .    712    662  26.683 
2230 54.58  .  .    595    636  24.393 
2231 54.60  .  .    571    625  23.896 
2232 54.62  .  .    580    611  24.083 
2233 54.64  .  .    533    573  23.087 
2234 54.66  .  .    492    510  22.181 
2235 54.68  .  .    408    437  20.199 
2236 54.70  .  .    396    368  19.9   
2237 54.72  .  .    361    312  19     
2238 54.74  .  .    292    267  17.088 
2239 54.76  .  .    213    233  14.595 
2240 54.78  .  .    169    205  13     
2241 54.80  .  .    184    182  13.565 
2242 54.82  .  .    153    162  12.369 
2243 54.84  .  .    151    145  12.288 
2244 54.86  .  .    134    131  11.576 
2245 54.88  .  .    125    120  11.18  
2246 54.90  .  .    116    112  10.77  
2247 54.92  .  .    98     105  9.899  
2248 54.94  .  .    106    100  10.296 
2249 54.96  .  .    104    97   10.198 
2250 54.98  .  .    102    95   10.1   
2251 55.00  .  .    100    94   10     
2252 55.02  .  .    100    93   10     
2253 55.04  .  .    100    91   10     
2254 55.06  .  .    94     88   9.695  
2255 55.08  .  .    90     81   9.487  
2256 55.10  .  .    86     77   9.274  
2257 55.12  .  .    82     74   9.055  
2258 55.14  .  .    77     71   8.775  
2259 55.16  .  .    75     69   8.66   
2260 55.18  .  .    73     67   8.544  
2261 55.20  .  .    70     65   8.367  
2262 55.22  .  .    67     61   8.185  
2263 55.24  .  .    62     58   7.874  
2264 55.26  .  .    59     55   7.681  
2265 55.28  .  .    56     52   7.483  
2266 55.30  .  .    53     50   7.28   
2267 55.32  .  .    51     49   7.141  
2268 55.34  .  .    50     47   7.071  
2269 55.36  .  .    49     46   7      
2270 55.38  .  .    47     45   6.856  
2271 55.40  .  .    47     44   6.856  
2272 55.42  .  .    46     43   6.782  
2273 55.44  .  .    44     42   6.633  
2274 55.46  .  .    38     41   6.164  
2275 55.48  .  .    38     36   6.164  
2276 55.50  .  .    38     35   6.164  
2277 55.52  .  .    37     35   6.083  
2278 55.54  .  .    37     35   6.083  
2279 55.56  .  .    37     34   6.083  
2280 55.58  .  .    36     34   6      
2281 55.60  .  .    36     34   6      
2282 55.62  .  .    32     34   5.657  
2283 55.64  .  .    32     31   5.657  
2284 55.66  .  .    32     31   5.657  
2285 55.68  .  .    32     31   5.657  
2286 55.70  .  .    32     31   5.657  
2287 55.72  .  .    32     31   5.657  
2288 55.74  .  .    32     30   5.657  
2289 55.76  .  .    32     30   5.657  
2290 55.78  .  .    32     30   5.657  
2291 55.80  .  .    32     30   5.657  
2292 55.82  .  .    32     34   5.657  
2293 55.84  .  .    32     34   5.657  
2294 55.86  .  .    32     34   5.657  
2295 55.88  .  .    32     34   5.657  
2296 55.90  .  .    32     34   5.657  
2297 55.92  .  .    32     34   5.657  
2298 55.94  .  .    32     34   5.657  
2299 55.96  .  .    32     36   5.657  
2300 55.98  .  .    32     36   5.657  
2301 56.00  .  .    32     37   5.657  
2302 56.02  .  .    32     37   5.657  
2303 56.04  .  .    32     37   5.657  
2304 56.06  .  .    32     37   5.657  
2305 56.08  .  .    38     38   6.164  
2306 56.10  .  .    38     38   6.164  
2307 56.12  .  .    38     38   6.164  
2308 56.14  .  .    38     39   6.164  
2309 56.16  .  .    38     39   6.164  
2310 56.18  .  .    38     39   6.164  
2311 56.20  .  .    39     40   6.245  
2312 56.22  .  .    39     40   6.245  
2313 56.24  .  .    43     41   6.557  
2314 56.26  .  .    43     41   6.557  
2315 56.28  .  .    43     42   6.557  
2316 56.30  .  .    44     43   6.633  
2317 56.32  .  .    46     43   6.782  
2318 56.34  .  .    47     47   6.856  
2319 56.36  .  .    47     48   6.856  
2320 56.38  .  .    49     49   7      
2321 56.40  .  .    50     51   7.071  
2322 56.42  .  .    50     52   7.071  
2323 56.44  .  .    51     53   7.141  
2324 56.46  .  .    53     55   7.28   
2325 56.48  .  .    54     56   7.348  
2326 56.50  .  .    56     60   7.483  
2327 56.52  .  .    64     62   8      
2328 56.54  .  .    65     64   8.062  
2329 56.56  .  .    68     67   8.246  
2330 56.58  .  .    64     70   8      
2331 56.60  .  .    79     73   8.888  
2332 56.62  .  .    92     77   9.592  
2333 56.64  .  .    86     82   9.274  
2334 56.66  .  .    104    87   10.198 
2335 56.68  .  .    102    93   10.1   
2336 56.70  .  .    118    100  10.863 
2337 56.72  .  .    94     108  9.695  
2338 56.74  .  .    118    118  10.863 
2339 56.76  .  .    116    130  10.77  
2340 56.78  .  .    163    144  12.767 
2341 56.80  .  .    146    163  12.083 
2342 56.82  .  .    201    186  14.177 
2343 56.84  .  .    198    215  14.071 
2344 56.86  .  .    256    252  16     
2345 56.88  .  .    324    300  18     
2346 56.90  .  .    349    360  18.682 
2347 56.92  .  .    453    433  21.284 
2348 56.94  .  .    566    518  23.791 
2349 56.96  .  .    625    617  25     
2350 56.98  .  .    712    725  26.683 
2351 57.00  .  .    812    816  28.496 
2352 57.02  .  .    829    851  28.792 
2353 57.04  .  .    841    816  29     
2354 57.06  .  .    745    743  27.295 
2355 57.08  .  .    696    671  26.382 
2356 57.10  .  .    650    622  25.495 
2357 57.12  .  .    620    600  24.9   
2358 57.14  .  .    580    596  24.083 
2359 57.16  .  .    542    590  23.281 
2360 57.18  .  .    552    560  23.495 
2361 57.20  .  .    501    503  22.383 
2362 57.22  .  .    428    439  20.688 
2363 57.24  .  .    368    382  19.183 
2364 57.26  .  .    327    340  18.083 
2365 57.28  .  .    338    313  18.385 
2366 57.30  .  .    262    299  16.186 
2367 57.32  .  .    275    298  16.583 
2368 57.34  .  .    289    308  17     
2369 57.36  .  .    334    332  18.276 
2370 57.38  .  .    331    371  18.193 
2371 57.40  .  .    420    429  20.494 
2372 57.42  .  .    547    508  23.388 
2373 57.44  .  .    645    605  25.397 
2374 57.46  .  .    734    703  27.092 
2375 57.48  .  .    817    768  28.583 
2376 57.50  .  .    789    768  28.089 
2377 57.52  .  .    772    711  27.785 
2378 57.54  .  .    670    635  25.884 
2379 57.56  .  .    635    573  25.199 
2380 57.58  .  .    585    537  24.187 
2381 57.60  .  .    547    526  23.388 
2382 57.62  .  .    547    525  23.388 
2383 57.64  .  .    561    511  23.685 
2384 57.66  .  .    466    471  21.587 
2385 57.68  .  .    408    409  20.199 
2386 57.70  .  .    372    345  19.287 
2387 57.72  .  .    289    288  17     
2388 57.74  .  .    278    243  16.673 
2389 57.76  .  .    176    208  13.266 
2390 57.78  .  .    182    181  13.491 
2391 57.80  .  .    193    161  13.892 
2392 57.82  .  .    144    146  12     
2393 57.84  .  .    141    135  11.874 
2394 57.86  .  .    136    126  11.662 
2395 57.88  .  .    136    121  11.662 
2396 57.90  .  .    121    118  11     
2397 57.92  .  .    112    111  10.583 
2398 57.94  .  .    127    112  11.269 
2399 57.96  .  .    104    114  10.198 
2400 57.98  .  .    148    115  12.166 
2401 58.00  .  .    134    113  11.576 
2402 58.02  .  .    125    111  11.18  
2403 58.04  .  .    125    109  11.18  
2404 58.06  .  .    110    110  10.488 
2405 58.08  .  .    132    114  11.489 
2406 58.10  .  .    110    119  10.488 
2407 58.12  .  .    153    129  12.369 
2408 58.14  .  .    144    139  12     
2409 58.16  .  .    179    146  13.379 
2410 58.18  .  .    153    147  12.369 
2411 58.20  .  .    144    140  12     
2412 58.22  .  .    153    128  12.369 
2413 58.24  .  .    132    120  11.489 
2414 58.26  .  .    106    112  10.296 
2415 58.28  .  .    129    108  11.358 
2416 58.30  .  .    100    106  10     
2417 58.32  .  .    114    104  10.677 
2418 58.34  .  .    108    100  10.392 
2419 58.36  .  .    108    93   10.392 
2420 58.38  .  .    96     85   9.798  
2421 58.40  .  .    110    79   10.488 
2422 58.42  .  .    72     67   8.485  
2423 58.44  .  .    75     62   8.66   
2424 58.46  .  .    77     58   8.775  
2425 58.48  .  .    56     55   7.483  
2426 58.50  .  .    56     53   7.483  
2427 58.52  .  .    53     50   7.28   
2428 58.54  .  .    53     49   7.28   
2429 58.56  .  .    49     46   7      
2430 58.58  .  .    47     45   6.856  
2431 58.60  .  .    47     44   6.856  
2432 58.62  .  .    47     44   6.856  
2433 58.64  .  .    47     44   6.856  
2434 58.66  .  .    47     44   6.856  
2435 58.68  .  .    47     44   6.856  
2436 58.70  .  .    47     44   6.856  
2437 58.72  .  .    47     44   6.856  
2438 58.74  .  .    47     44   6.856  
2439 58.76  .  .    47     45   6.856  
2440 58.78  .  .    49     46   7      
2441 58.80  .  .    49     46   7      
2442 58.82  .  .    50     47   7.071  
2443 58.84  .  .    50     48   7.071  
2444 58.86  .  .    50     49   7.071  
2445 58.88  .  .    53     50   7.28   
2446 58.90  .  .    53     52   7.28   
2447 58.92  .  .    70     53   8.367  
2448 58.94  .  .    72     55   8.485  
2449 58.96  .  .    46     57   6.782  
2450 58.98  .  .    56     59   7.483  
2451 59.00  .  .    84     62   9.165  
2452 59.02  .  .    67     65   8.185  
2453 59.04  .  .    88     69   9.381  
2454 59.06  .  .    86     74   9.274  
2455 59.08  .  .    72     79   8.485  
2456 59.10  .  .    96     85   9.798  
2457 59.12  .  .    88     93   9.381  
2458 59.14  .  .    104    102  10.198 
2459 59.16  .  .    104    114  10.198 
2460 59.18  .  .    129    128  11.358 
2461 59.20  .  .    136    146  11.662 
2462 59.22  .  .    174    170  13.191 
2463 59.24  .  .    246    200  15.684 
2464 59.26  .  .    262    239  16.186 
2465 59.28  .  .    285    290  16.882 
2466 59.30  .  .    361    352  19     
2467 59.32  .  .    470    424  21.679 
2468 59.34  .  .    475    495  21.794 
2469 59.36  .  .    533    542  23.087 
2470 59.38  .  .    566    547  23.791 
2471 59.40  .  .    515    515  22.694 
2472 59.42  .  .    479    467  21.886 
2473 59.44  .  .    404    424  20.1   
2474 59.46  .  .    392    396  19.799 
2475 59.48  .  .    396    385  19.9   
2476 59.50  .  .    364    382  19.079 
2477 59.52  .  .    384    376  19.596 
2478 59.54  .  .    342    354  18.493 
2479 59.56  .  .    316    316  17.776 
2480 59.58  .  .    262    271  16.186 
2481 59.60  .  .    222    228  14.9   
2482 59.62  .  .    222    192  14.9   
2483 59.64  .  .    176    163  13.266 
2484 59.66  .  .    144    140  12     
2485 59.68  .  .    121    123  11     
2486 59.70  .  .    118    109  10.863 
2487 59.72  .  .    96     97   9.798  
2488 59.74  .  .    84     88   9.165  
2489 59.76  .  .    82     81   9.055  
2490 59.78  .  .    79     75   8.888  
2491 59.80  .  .    84     70   9.165  
2492 59.82  .  .    67     65   8.185  
2493 59.84  .  .    62     61   7.874  
2494 59.86  .  .    67     58   8.185  
2495 59.88  .  .    67     56   8.185  
2496 59.90  .  .    67     53   8.185  
2497 59.92  .  .    50     51   7.071  
2498 59.94  .  .    53     49   7.28   
2499 59.96  .  .    59     48   7.681  
2500 59.98  .  .    50     46   7.071  
2501 60.00  .  .    56     45   7.483  
2502 60.02  .  .    56     44   7.483  
2503 60.04  .  .    67     43   8.185  
2504 60.06  .  .    30     42   5.477  
2505 60.08  .  .    43     42   6.557  
2506 60.10  .  .    47     41   6.856  
2507 60.12  .  .    39     40   6.245  
2508 60.14  .  .    43     40   6.557  
2509 60.16  .  .    50     39   7.071  
2510 60.18  .  .    53     39   7.28   
2511 60.20  .  .    59     38   7.681  
2512 60.22  .  .    43     38   6.557  
2513 60.24  .  .    42     38   6.481  
2514 60.26  .  .    37     37   6.083  
2515 60.28  .  .    50     37   7.071  
2516 60.30  .  .    46     39   6.782  
2517 60.32  .  .    33     38   5.745  
2518 60.34  .  .    50     38   7.071  
2519 60.36  .  .    47     38   6.856  
2520 60.38  .  .    50     34   7.071  
2521 60.40  .  .    31     34   5.568  
2522 60.42  .  .    32     34   5.657  
2523 60.44  .  .    32     35   5.657  
2524 60.46  .  .    47     35   6.856  
2525 60.48  .  .    39     36   6.245  
2526 60.50  .  .    46     36   6.782  
2527 60.52  .  .    39     36   6.245  
2528 60.54  .  .    37     35   6.083  
2529 60.56  .  .    30     35   5.477  
2530 60.58  .  .    37     35   6.083  
2531 60.60  .  .    33     36   5.745  
2532 60.62  .  .    37     36   6.083  
2533 60.64  .  .    50     37   7.071  
2534 60.66  .  .    50     37   7.071  
2535 60.68  .  .    50     38   7.071  
2536 60.70  .  .    50     38   7.071  
2537 60.72  .  .    53     39   7.28   
2538 60.74  .  .    43     40   6.557  
2539 60.76  .  .    56     40   7.483  
2540 60.78  .  .    62     41   7.874  
2541 60.80  .  .    50     42   7.071  
2542 60.82  .  .    50     44   7.071  
2543 60.84  .  .    72     45   8.485  
2544 60.86  .  .    53     46   7.28   
2545 60.88  .  .    62     48   7.874  
2546 60.90  .  .    43     50   6.557  
2547 60.92  .  .    64     52   8      
2548 60.94  .  .    50     54   7.071  
2549 60.96  .  .    62     57   7.874  
2550 60.98  .  .    64     60   8      
2551 61.00  .  .    82     65   9.055  
2552 61.02  .  .    67     70   8.185  
2553 61.04  .  .    81     76   9      
2554 61.06  .  .    102    83   10.1   
2555 61.08  .  .    106    93   10.296 
2556 61.10  .  .    123    104  11.091 
2557 61.12  .  .    151    119  12.288 
2558 61.14  .  .    141    138  11.874 
2559 61.16  .  .    176    159  13.266 
2560 61.18  .  .    231    182  15.199 
2561 61.20  .  .    237    201  15.395 
2562 61.22  .  .    243    212  15.588 
2563 61.24  .  .    222    212  14.9   
2564 61.26  .  .    207    205  14.387 
2565 61.28  .  .    198    196  14.071 
2566 61.30  .  .    201    190  14.177 
2567 61.32  .  .    176    191  13.266 
2568 61.34  .  .    201    196  14.177 
2569 61.36  .  .    201    206  14.177 
2570 61.38  .  .    234    216  15.297 
2571 61.40  .  .    243    225  15.588 
2572 61.42  .  .    246    234  15.684 
2573 61.44  .  .    268    247  16.371 
2574 61.46  .  .    278    266  16.673 
2575 61.48  .  .    320    294  17.889 
2576 61.50  .  .    320    330  17.889 
2577 61.52  .  .    349    366  18.682 
2578 61.54  .  .    384    394  19.596 
2579 61.56  .  .    392    402  19.799 
2580 61.58  .  .    376    389  19.391 
2581 61.60  .  .    316    361  17.776 
2582 61.62  .  .    342    332  18.493 
2583 61.64  .  .    285    308  16.882 
2584 61.66  .  .    289    294  17     
2585 61.68  .  .    282    287  16.793 
2586 61.70  .  .    262    282  16.186 
2587 61.72  .  .    249    273  15.78  
2588 61.74  .  .    240    255  15.492 
2589 61.76  .  .    237    229  15.395 
2590 61.78  .  .    210    201  14.491 
2591 61.80  .  .    169    175  13     
2592 61.82  .  .    161    152  12.689 
2593 61.84  .  .    158    133  12.57  
2594 61.86  .  .    129    118  11.358 
2595 61.88  .  .    118    106  10.863 
2596 61.90  .  .    110    96   10.488 
2597 61.92  .  .    104    88   10.198 
2598 61.94  .  .    94     82   9.695  
2599 61.96  .  .    75     77   8.66   
2600 61.98  .  .    92     72   9.592  
2601 62.00  .  .    86     69   9.274  
2602 62.02  .  .    88     66   9.381  
2603 62.04  .  .    64     64   8      
2604 62.06  .  .    70     62   8.367  
2605 62.08  .  .    77     60   8.775  
2606 62.10  .  .    72     59   8.485  
2607 62.12  .  .    72     58   8.485  
2608 62.14  .  .    65     57   8.062  
2609 62.16  .  .    67     57   8.185  
2610 62.18  .  .    65     57   8.062  
2611 62.20  .  .    50     57   7.071  
2612 62.22  .  .    67     58   8.185  
2613 62.24  .  .    62     59   7.874  
2614 62.26  .  .    59     61   7.681  
2615 62.28  .  .    67     62   8.185  
2616 62.30  .  .    90     65   9.487  
2617 62.32  .  .    65     68   8.062  
2618 62.34  .  .    67     73   8.185  
2619 62.36  .  .    72     79   8.485  
2620 62.38  .  .    79     87   8.888  
2621 62.40  .  .    123    96   11.091 
2622 62.42  .  .    129    106  11.358 
2623 62.44  .  .    134    116  11.576 
2624 62.46  .  .    129    126  11.358 
2625 62.48  .  .    158    133  12.57  
2626 62.50  .  .    161    140  12.689 
2627 62.52  .  .    163    147  12.767 
2628 62.54  .  .    176    156  13.266 
2629 62.56  .  .    187    167  13.675 
2630 62.58  .  .    196    177  14     
2631 62.60  .  .    228    184  15.1   
2632 62.62  .  .    201    186  14.177 
2633 62.64  .  .    216    186  14.697 
2634 62.66  .  .    196    186  14     
2635 62.68  .  .    207    184  14.387 
2636 62.70  .  .    216    184  14.697 
2637 62.72  .  .    166    182  12.884 
2638 62.74  .  .    201    177  14.177 
2639 62.76  .  .    179    167  13.379 
2640 62.78  .  .    141    155  11.874 
2641 62.80  .  .    136    142  11.662 
2642 62.82  .  .    129    131  11.358 
2643 62.84  .  .    132    122  11.489 
2644 62.86  .  .    110    114  10.488 
2645 62.88  .  .    108    107  10.392 
2646 62.90  .  .    94     100  9.695  
2647 62.92  .  .    136    91   11.662 
2648 62.94  .  .    90     83   9.487  
2649 62.96  .  .    67     74   8.185  
2650 62.98  .  .    88     67   9.381  
2651 63.00  .  .    92     61   9.592  
2652 63.02  .  .    56     57   7.483  
2653 63.04  .  .    62     53   7.874  
2654 63.06  .  .    50     50   7.071  
2655 63.08  .  .    65     48   8.062  
2656 63.10  .  .    56     45   7.483  
2657 63.12  .  .    62     43   7.874  
2658 63.14  .  .    50     42   7.071  
2659 63.16  .  .    47     41   6.856  
2660 63.18  .  .    43     39   6.557  
2661 63.20  .  .    38     38   6.164  
2662 63.22  .  .    50     38   7.071  
2663 63.24  .  .    32     37   5.657  
2664 63.26  .  .    43     37   6.557  
2665 63.28  .  .    42     36   6.481  
2666 63.30  .  .    50     36   7.071  
2667 63.32  .  .    53     35   7.28   
2668 63.34  .  .    42     35   6.481  
2669 63.36  .  .    38     34   6.164  
2670 63.38  .  .    49     34   7      
2671 63.40  .  .    50     34   7.071  
2672 63.42  .  .    46     34   6.782  
2673 63.44  .  .    32     33   5.657  
2674 63.46  .  .    43     33   6.557  
2675 63.48  .  .    38     33   6.164  
2676 63.50  .  .    42     33   6.481  
2677 63.52  .  .    37     33   6.083  
2678 63.54  .  .    43     33   6.557  
2679 63.56  .  .    38     33   6.164  
2680 63.58  .  .    56     33   7.483  
2681 63.60  .  .    33     33   5.745  
2682 63.62  .  .    49     33   7      
2683 63.64  .  .    38     33   6.164  
2684 63.66  .  .    25     33   5      
2685 63.68  .  .    38     33   6.164  
2686 63.70  .  .    38     33   6.164  
2687 63.72  .  .    47     33   6.856  
2688 63.74  .  .    38     34   6.164  
2689 63.76  .  .    31     34   5.568  
2690 63.78  .  .    43     35   6.557  
2691 63.80  .  .    47     35   6.856  
2692 63.82  .  .    50     36   7.071  
2693 63.84  .  .    50     37   7.071  
2694 63.86  .  .    33     38   5.745  
2695 63.88  .  .    38     40   6.164  
2696 63.90  .  .    47     41   6.856  
2697 63.92  .  .    38     43   6.164  
2698 63.94  .  .    79     44   8.888  
2699 63.96  .  .    38     47   6.164  
2700 63.98  .  .    47     49   6.856  
2701 64.00  .  .    43     52   6.557  
2702 64.02  .  .    59     56   7.681  
2703 64.04  .  .    64     61   8      
2704 64.06  .  .    53     67   7.28   
2705 64.08  .  .    67     75   8.185  
2706 64.10  .  .    98     85   9.899  
2707 64.12  .  .    92     97   9.592  
2708 64.14  .  .    116    112  10.77  
2709 64.16  .  .    134    132  11.576 
2710 64.18  .  .    176    153  13.266 
2711 64.20  .  .    187    174  13.675 
2712 64.22  .  .    216    188  14.697 
2713 64.24  .  .    219    190  14.799 
2714 64.26  .  .    184    181  13.565 
2715 64.28  .  .    187    167  13.675 
2716 64.30  .  .    144    153  12     
2717 64.32  .  .    148    143  12.166 
2718 64.34  .  .    132    138  11.489 
2719 64.36  .  .    132    137  11.489 
2720 64.38  .  .    163    138  12.767 
2721 64.40  .  .    163    137  12.767 
2722 64.42  .  .    163    131  12.767 
2723 64.44  .  .    116    120  10.77  
2724 64.46  .  .    110    108  10.488 
2725 64.48  .  .    104    96   10.198 
2726 64.50  .  .    104    86   10.198 
2727 64.52  .  .    84     78   9.165  
2728 64.54  .  .    64     72   8      
2729 64.56  .  .    62     67   7.874  
2730 64.58  .  .    53     63   7.28   
2731 64.60  .  .    72     60   8.485  
2732 64.62  .  .    82     58   9.055  
2733 64.64  .  .    56     56   7.483  
2734 64.66  .  .    70     55   8.367  
2735 64.68  .  .    56     54   7.483  
2736 64.70  .  .    65     54   8.062  
2737 64.72  .  .    67     54   8.185  
2738 64.74  .  .    53     54   7.28   
2739 64.76  .  .    96     54   9.798  
2740 64.78  .  .    67     54   8.185  
2741 64.80  .  .    81     55   9      
2742 64.82  .  .    82     56   9.055  
2743 64.84  .  .    62     58   7.874  
2744 64.86  .  .    59     59   7.681  
2745 64.88  .  .    72     61   8.485  
2746 64.90  .  .    116    64   10.77  
2747 64.92  .  .    65     67   8.062  
2748 64.94  .  .    84     71   9.165  
2749 64.96  .  .    79     75   8.888  
2750 64.98  .  .    90     80   9.487  
2751 65.00  .  .    96     87   9.798  
2752 65.02  .  .    82     94   9.055  
2753 65.04  .  .    116    104  10.77  
2754 65.06  .  .    123    115  11.091 
2755 65.08  .  .    136    130  11.662 
2756 65.10  .  .    139    148  11.79  
2757 65.12  .  .    190    170  13.784 
2758 65.14  .  .    182    197  13.491 
2759 65.16  .  .    201    228  14.177 
2760 65.18  .  .    246    263  15.684 
2761 65.20  .  .    246    296  15.684 
2762 65.22  .  .    313    320  17.692 
2763 65.24  .  .    289    329  17     
2764 65.26  .  .    268    321  16.371 
2765 65.28  .  .    295    303  17.176 
2766 65.30  .  .    240    282  15.492 
2767 65.32  .  .    252    265  15.875 
2768 65.34  .  .    252    255  15.875 
2769 65.36  .  .    252    250  15.875 
2770 65.38  .  .    222    249  14.9   
2771 65.40  .  .    231    247  15.199 
2772 65.42  .  .    213    240  14.595 
2773 65.44  .  .    196    228  14     
2774 65.46  .  .    213    211  14.595 
2775 65.48  .  .    187    195  13.675 
2776 65.50  .  .    213    182  14.595 
2777 65.52  .  .    161    174  12.689 
2778 65.54  .  .    169    171  13     
2779 65.56  .  .    210    172  14.491 
2780 65.58  .  .    184    177  13.565 
2781 65.60  .  .    184    182  13.565 
2782 65.62  .  .    190    186  13.784 
2783 65.64  .  .    207    184  14.387 
2784 65.66  .  .    176    176  13.266 
2785 65.68  .  .    169    165  13     
2786 65.70  .  .    153    154  12.369 
2787 65.72  .  .    151    143  12.288 
2788 65.74  .  .    148    136  12.166 
2789 65.76  .  .    148    132  12.166 
2790 65.78  .  .    146    129  12.083 
2791 65.80  .  .    136    125  11.662 
2792 65.82  .  .    134    122  11.576 
2793 65.84  .  .    110    115  10.488 
2794 65.86  .  .    110    106  10.488 
2795 65.88  .  .    100    97   10     
2796 65.90  .  .    96     89   9.798  
2797 65.92  .  .    98     82   9.899  
2798 65.94  .  .    92     76   9.592  
2799 65.96  .  .    77     74   8.775  
2800 65.98  .  .    90     71   9.487  
2801 66.00  .  .    72     69   8.485  
2802 66.02  .  .    102    68   10.1   
2803 66.04  .  .    72     67   8.485  
2804 66.06  .  .    75     65   8.66   
2805 66.08  .  .    70     63   8.367  
2806 66.10  .  .    84     61   9.165  
2807 66.12  .  .    67     59   8.185  
2808 66.14  .  .    53     59   7.28   
2809 66.16  .  .    62     58   7.874  
2810 66.18  .  .    56     57   7.483  
2811 66.20  .  .    70     57   8.367  
2812 66.22  .  .    70     57   8.367  
2813 66.24  .  .    53     57   7.28   
2814 66.26  .  .    59     56   7.681  
2815 66.28  .  .    53     55   7.28   
2816 66.30  .  .    46     55   6.782  
2817 66.32  .  .    53     55   7.28   
2818 66.34  .  .    38     55   6.164  
2819 66.36  .  .    75     55   8.66   
2820 66.38  .  .    59     55   7.681  
2821 66.40  .  .    65     56   8.062  
2822 66.42  .  .    59     57   7.681  
2823 66.44  .  .    67     58   8.185  
2824 66.46  .  .    67     58   8.185  
2825 66.48  .  .    59     60   7.681  
2826 66.50  .  .    70     63   8.367  
2827 66.52  .  .    56     66   7.483  
2828 66.54  .  .    64     69   8      
2829 66.56  .  .    75     73   8.66   
2830 66.58  .  .    79     77   8.888  
2831 66.60  .  .    79     83   8.888  
2832 66.62  .  .    82     88   9.055  
2833 66.64  .  .    84     93   9.165  
2834 66.66  .  .    100    99   10     
2835 66.68  .  .    106    105  10.296 
2836 66.70  .  .    100    110  10     
2837 66.72  .  .    118    115  10.863 
2838 66.74  .  .    112    120  10.583 
2839 66.76  .  .    118    128  10.863 
2840 66.78  .  .    121    139  11     
2841 66.80  .  .    158    152  12.57  
2842 66.82  .  .    176    168  13.266 
2843 66.84  .  .    201    189  14.177 
2844 66.86  .  .    246    214  15.684 
2845 66.88  .  .    256    244  16     
2846 66.90  .  .    292    281  17.088 
2847 66.92  .  .    309    322  17.578 
2848 66.94  .  .    338    366  18.385 
2849 66.96  .  .    357    404  18.894 
2850 66.98  .  .    416    429  20.396 
2851 67.00  .  .    432    434  20.785 
2852 67.02  .  .    408    427  20.199 
2853 67.04  .  .    400    416  20     
2854 67.06  .  .    412    411  20.298 
2855 67.08  .  .    376    418  19.391 
2856 67.10  .  .    441    440  21     
2857 67.12  .  .    492    473  22.181 
2858 67.14  .  .    552    513  23.495 
2859 67.16  .  .    552    546  23.495 
2860 67.18  .  .    533    558  23.087 
2861 67.20  .  .    585    540  24.187 
2862 67.22  .  .    580    498  24.083 
2863 67.24  .  .    466    446  21.587 
2864 67.26  .  .    436    397  20.881 
2865 67.28  .  .    361    359  19     
2866 67.30  .  .    338    333  18.385 
2867 67.32  .  .    316    318  17.776 
2868 67.34  .  .    299    310  17.292 
2869 67.36  .  .    357    303  18.894 
2870 67.38  .  .    342    289  18.493 
2871 67.40  .  .    306    267  17.493 
2872 67.42  .  .    275    241  16.583 
2873 67.44  .  .    246    214  15.684 
2874 67.46  .  .    210    190  14.491 
2875 67.48  .  .    187    171  13.675 
2876 67.50  .  .    151    156  12.288 
2877 67.52  .  .    161    145  12.689 
2878 67.54  .  .    129    138  11.358 
2879 67.56  .  .    118    133  10.863 
2880 67.58  .  .    129    131  11.358 
2881 67.60  .  .    146    132  12.083 
2882 67.62  .  .    132    136  11.489 
2883 67.64  .  .    134    143  11.576 
2884 67.66  .  .    148    153  12.166 
2885 67.68  .  .    182    167  13.491 
2886 67.70  .  .    196    185  14     
2887 67.72  .  .    207    205  14.387 
2888 67.74  .  .    228    222  15.1   
2889 67.76  .  .    222    232  14.9   
2890 67.78  .  .    278    230  16.673 
2891 67.80  .  .    207    218  14.387 
2892 67.82  .  .    210    202  14.491 
2893 67.84  .  .    201    186  14.177 
2894 67.86  .  .    184    174  13.565 
2895 67.88  .  .    176    166  13.266 
2896 67.90  .  .    163    163  12.767 
2897 67.92  .  .    166    163  12.884 
2898 67.94  .  .    158    161  12.57  
2899 67.96  .  .    158    156  12.57  
2900 67.98  .  .    163    146  12.767 
2901 68.00  .  .    148    132  12.166 
2902 68.02  .  .    125    118  11.18  
2903 68.04  .  .    106    105  10.296 
2904 68.06  .  .    134    94   11.576 
2905 68.08  .  .    75     84   8.66   
2906 68.10  .  .    72     77   8.485  
2907 68.12  .  .    88     71   9.381  
2908 68.14  .  .    62     66   7.874  
2909 68.16  .  .    59     62   7.681  
2910 68.18  .  .    65     59   8.062  
2911 68.20  .  .    50     56   7.071  
2912 68.22  .  .    64     52   8      
2913 68.24  .  .    50     50   7.071  
2914 68.26  .  .    56     49   7.483  
2915 68.28  .  .    43     47   6.557  
2916 68.30  .  .    53     46   7.28   
2917 68.32  .  .    50     46   7.071  
2918 68.34  .  .    47     45   6.856  
2919 68.36  .  .    49     45   7      
2920 68.38  .  .    56     45   7.483  
2921 68.40  .  .    47     46   6.856  
2922 68.42  .  .    53     43   7.28   
2923 68.44  .  .    56     45   7.483  
2924 68.46  .  .    43     46   6.557  
2925 68.48  .  .    59     49   7.681  
2926 68.50  .  .    65     50   8.062  
2927 68.52  .  .    43     53   6.557  
2928 68.54  .  .    72     56   8.485  
2929 68.56  .  .    65     57   8.062  
2930 68.58  .  .    59     57   7.681  
2931 68.60  .  .    53     56   7.28   
2932 68.62  .  .    70     54   8.367  
2933 68.64  .  .    64     53   8      
2934 68.66  .  .    50     51   7.071  
2935 68.68  .  .    67     50   8.185  
2936 68.70  .  .    53     49   7.28   
2937 68.72  .  .    49     49   7      
2938 68.74  .  .    53     48   7.28   
2939 68.76  .  .    43     48   6.557  
2940 68.78  .  .    49     46   7      
2941 68.80  .  .    39     44   6.245  
2942 68.82  .  .    46     42   6.782  
2943 68.84  .  .    59     41   7.681  
2944 68.86  .  .    43     39   6.557  
2945 68.88  .  .    43     38   6.557  
2946 68.90  .  .    43     37   6.557  
2947 68.92  .  .    28     34   5.292  
2948 68.94  .  .    47     33   6.856  
2949 68.96  .  .    47     33   6.856  
2950 68.98  .  .    43     33   6.557  
2951 69.00  .  .    42     32   6.481  
2952 69.02  .  .    49     32   7      
2953 69.04  .  .    38     32   6.164  
2954 69.06  .  .    42     32   6.481  
2955 69.08  .  .    37     32   6.083  
2956 69.10  .  .    42     32   6.481  
2957 69.12  .  .    37     31   6.083  
2958 69.14  .  .    37     31   6.083  
2959 69.16  .  .    37     31   6.083  
2960 69.18  .  .    53     32   7.28   
2961 69.20  .  .    49     32   7      
2962 69.22  .  .    38     32   6.164  
2963 69.24  .  .    33     33   5.745  
2964 69.26  .  .    50     33   7.071  
2965 69.28  .  .    53     33   7.28   
2966 69.30  .  .    38     33   6.164  
2967 69.32  .  .    32     33   5.657  
2968 69.34  .  .    43     33   6.557  
2969 69.36  .  .    39     34   6.245  
2970 69.38  .  .    43     34   6.557  
2971 69.40  .  .    53     35   7.28   
2972 69.42  .  .    38     35   6.164  
2973 69.44  .  .    32     36   5.657  
2974 69.46  .  .    72     36   8.485  
2975 69.48  .  .    53     37   7.28   
2976 69.50  .  .    38     37   6.164  
2977 69.52  .  .    49     38   7      
2978 69.54  .  .    56     39   7.483  
2979 69.56  .  .    43     40   6.557  
2980 69.58  .  .    59     41   7.681  
2981 69.60  .  .    46     42   6.782  
2982 69.62  .  .    53     43   7.28   
2983 69.64  .  .    56     45   7.483  
2984 69.66  .  .    49     47   7      
2985 69.68  .  .    50     49   7.071  
2986 69.70  .  .    53     51   7.28   
2987 69.72  .  .    82     54   9.055  
2988 69.74  .  .    65     58   8.062  
2989 69.76  .  .    70     62   8.367  
2990 69.78  .  .    79     66   8.888  
2991 69.80  .  .    88     72   9.381  
2992 69.82  .  .    82     79   9.055  
2993 69.84  .  .    96     88   9.798  
2994 69.86  .  .    100    98   10     
2995 69.88  .  .    106    112  10.296 
2996 69.90  .  .    129    128  11.358 
2997 69.92  .  .    144    147  12     
2998 69.94  .  .    174    169  13.191 
2999 69.96  .  .    207    191  14.387 
3000 69.98  .  .    219    209  14.799 
3001 70.00  .  .    222    218  14.9   
3002 70.02  .  .    228    217  15.1   
3003 70.04  .  .    234    207  15.297 
3004 70.06  .  .    213    193  14.595 
3005 70.08  .  .    225    179  15     
3006 70.10  .  .    193    170  13.892 
3007 70.12  .  .    166    164  12.884 
3008 70.14  .  .    158    163  12.57  
3009 70.16  .  .    182    163  13.491 
3010 70.18  .  .    153    164  12.369 
3011 70.20  .  .    182    162  13.491 
3012 70.22  .  .    144    155  12     
3013 70.24  .  .    153    146  12.369 
3014 70.26  .  .    146    135  12.083 
3015 70.28  .  .    144    125  12     
3016 70.30  .  .    106    116  10.296 
3017 70.32  .  .    98     108  9.899  
3018 70.34  .  .    118    101  10.863 
3019 70.36  .  .    86     94   9.274  
3020 70.38  .  .    79     89   8.888  
3021 70.40  .  .    104    84   10.198 
3022 70.42  .  .    90     81   9.487  
3023 70.44  .  .    77     79   8.775  
3024 70.46  .  .    72     78   8.485  
3025 70.48  .  .    72     79   8.485  
3026 70.50  .  .    72     80   8.485  
3027 70.52  .  .    86     81   9.274  
3028 70.54  .  .    56     83   7.483  
3029 70.56  .  .    108    86   10.392 
3030 70.58  .  .    110    90   10.488 
3031 70.60  .  .    86     95   9.274  
3032 70.62  .  .    90     101  9.487  
3033 70.64  .  .    86     106  9.274  
3034 70.66  .  .    84     110  9.165  
3035 70.68  .  .    136    113  11.662 
3036 70.70  .  .    123    115  11.091 
3037 70.72  .  .    110    117  10.488 
3038 70.74  .  .    114    119  10.677 
3039 70.76  .  .    121    122  11     
3040 70.78  .  .    108    124  10.392 
3041 70.80  .  .    132    128  11.489 
3042 70.82  .  .    129    132  11.358 
3043 70.84  .  .    136    138  11.662 
3044 70.86  .  .    169    146  13     
3045 70.88  .  .    144    154  12     
3046 70.90  .  .    153    162  12.369 
3047 70.92  .  .    144    167  12     
3048 70.94  .  .    139    167  11.79  
3049 70.96  .  .    144    162  12     
3050 70.98  .  .    169    153  13     
3051 71.00  .  .    148    142  12.166 
3052 71.02  .  .    136    133  11.662 
3053 71.04  .  .    118    127  10.863 
3054 71.06  .  .    114    123  10.677 
3055 71.08  .  .    104    123  10.198 
3056 71.10  .  .    129    124  11.358 
3057 71.12  .  .    125    125  11.18  
3058 71.14  .  .    125    125  11.18  
3059 71.16  .  .    116    124  10.77  
3060 71.18  .  .    125    120  11.18  
3061 71.20  .  .    125    114  11.18  
3062 71.22  .  .    110    107  10.488 
3063 71.24  .  .    102    100  10.1   
3064 71.26  .  .    108    94   10.392 
3065 71.28  .  .    86     90   9.274  
3066 71.30  .  .    75     87   8.66   
3067 71.32  .  .    106    84   10.296 
3068 71.34  .  .    82     81   9.055  
3069 71.36  .  .    88     78   9.381  
3070 71.38  .  .    62     74   7.874  
3071 71.40  .  .    75     71   8.66   
3072 71.42  .  .    79     67   8.888  
3073 71.44  .  .    70     63   8.367  
3074 71.46  .  .    70     60   8.367  
3075 71.48  .  .    65     57   8.062  
3076 71.50  .  .    59     55   7.681  
3077 71.52  .  .    50     53   7.071  
3078 71.54  .  .    50     51   7.071  
3079 71.56  .  .    53     48   7.28   
3080 71.58  .  .    56     45   7.483  
3081 71.60  .  .    53     43   7.28   
3082 71.62  .  .    33     41   5.745  
3083 71.64  .  .    43     40   6.557  
3084 71.66  .  .    43     38   6.557  
3085 71.68  .  .    56     37   7.483  
3086 71.70  .  .    56     36   7.483  
3087 71.72  .  .    56     36   7.483  
3088 71.74  .  .    47     35   6.856  
3089 71.76  .  .    53     35   7.28   
3090 71.78  .  .    39     36   6.245  
3091 71.80  .  .    37     35   6.083  
3092 71.82  .  .    43     35   6.557  
3093 71.84  .  .    32     35   5.657  
3094 71.86  .  .    33     36   5.745  
3095 71.88  .  .    56     36   7.483  
3096 71.90  .  .    43     37   6.557  
3097 71.92  .  .    53     37   7.28   
3098 71.94  .  .    42     37   6.481  
3099 71.96  .  .    43     38   6.557  
3100 71.98  .  .    29     38   5.385  
3101 72.00  .  .    43     38   6.557  
3102 72.02  .  .    38     39   6.164  
3103 72.04  .  .    47     39   6.856  
3104 72.06  .  .    38     40   6.164  
3105 72.08  .  .    46     40   6.782  
3106 72.10  .  .    38     41   6.164  
3107 72.12  .  .    33     42   5.745  
3108 72.14  .  .    59     44   7.681  
3109 72.16  .  .    67     45   8.185  
3110 72.18  .  .    43     47   6.557  
3111 72.20  .  .    59     48   7.681  
3112 72.22  .  .    53     49   7.28   
3113 72.24  .  .    42     48   6.481  
3114 72.26  .  .    59     49   7.681  
3115 72.28  .  .    59     49   7.681  
3116 72.30  .  .    64     50   8      
3117 72.32  .  .    56     51   7.483  
3118 72.34  .  .    59     53   7.681  
3119 72.36  .  .    49     56   7      
3120 72.38  .  .    82     59   9.055  
3121 72.40  .  .    65     62   8.062  
3122 72.42  .  .    56     64   7.483  
3123 72.44  .  .    72     64   8.485  
3124 72.46  .  .    79     64   8.888  
3125 72.48  .  .    67     62   8.185  
3126 72.50  .  .    59     60   7.681  
3127 72.52  .  .    67     59   8.185  
3128 72.54  .  .    53     58   7.28   
3129 72.56  .  .    50     57   7.071  
3130 72.58  .  .    84     57   9.165  
3131 72.60  .  .    67     58   8.185  
3132 72.62  .  .    50     58   7.071  
3133 72.64  .  .    77     59   8.775  
3134 72.66  .  .    65     59   8.062  
3135 72.68  .  .    72     59   8.485  
3136 72.70  .  .    53     58   7.28   
3137 72.72  .  .    67     58   8.185  
3138 72.74  .  .    56     59   7.483  
3139 72.76  .  .    67     59   8.185  
3140 72.78  .  .    70     60   8.367  
3141 72.80  .  .    77     62   8.775  
3142 72.82  .  .    81     64   9      
3143 72.84  .  .    67     67   8.185  
3144 72.86  .  .    72     70   8.485  
3145 72.88  .  .    70     74   8.367  
3146 72.90  .  .    92     79   9.592  
3147 72.92  .  .    96     85   9.798  
3148 72.94  .  .    72     92   8.485  
3149 72.96  .  .    108    100  10.392 
3150 72.98  .  .    82     111  9.055  
3151 73.00  .  .    96     124  9.798  
3152 73.02  .  .    129    139  11.358 
3153 73.04  .  .    169    158  13     
3154 73.06  .  .    176    182  13.266 
3155 73.08  .  .    225    209  15     
3156 73.10  .  .    228    240  15.1   
3157 73.12  .  .    262    272  16.186 
3158 73.14  .  .    292    301  17.088 
3159 73.16  .  .    338    323  18.385 
3160 73.18  .  .    342    335  18.493 
3161 73.20  .  .    361    337  19     
3162 73.22  .  .    313    333  17.692 
3163 73.24  .  .    334    322  18.276 
3164 73.26  .  .    309    306  17.578 
3165 73.28  .  .    275    290  16.583 
3166 73.30  .  .    295    277  17.176 
3167 73.32  .  .    262    267  16.186 
3168 73.34  .  .    246    260  15.684 
3169 73.36  .  .    265    254  16.279 
3170 73.38  .  .    249    246  15.78  
3171 73.40  .  .    262    236  16.186 
3172 73.42  .  .    249    223  15.78  
3173 73.44  .  .    216    208  14.697 
3174 73.46  .  .    210    191  14.491 
3175 73.48  .  .    166    173  12.884 
3176 73.50  .  .    156    155  12.49  
3177 73.52  .  .    151    139  12.288 
3178 73.54  .  .    127    125  11.269 
3179 73.56  .  .    104    114  10.198 
3180 73.58  .  .    90     105  9.487  
3181 73.60  .  .    98     98   9.899  
3182 73.62  .  .    84     92   9.165  
3183 73.64  .  .    86     88   9.274  
3184 73.66  .  .    62     85   7.874  
3185 73.68  .  .    77     83   8.775  
3186 73.70  .  .    86     83   9.274  
3187 73.72  .  .    86     83   9.274  
3188 73.74  .  .    100    85   10     
3189 73.76  .  .    82     88   9.055  
3190 73.78  .  .    92     93   9.592  
3191 73.80  .  .    100    100  10     
3192 73.82  .  .    104    107  10.198 
3193 73.84  .  .    125    115  11.18  
3194 73.86  .  .    90     122  9.487  
3195 73.88  .  .    123    124  11.091 
3196 73.90  .  .    125    123  11.18  
3197 73.92  .  .    129    117  11.358 
3198 73.94  .  .    121    110  11     
3199 73.96  .  .    96     103  9.798  
3200 73.98  .  .    98     98   9.899  
3201 74.00  .  .    92     95   9.592  
3202 74.02  .  .    84     93   9.165  
3203 74.04  .  .    90     93   9.487  
3204 74.06  .  .    102    94   10.1   
3205 74.08  .  .    112    94   10.583 
3206 74.10  .  .    92     92   9.592  
3207 74.12  .  .    110    89   10.488 
3208 74.14  .  .    88     85   9.381  
3209 74.16  .  .    98     80   9.899  
3210 74.18  .  .    82     76   9.055  
3211 74.20  .  .    77     73   8.775  
3212 74.22  .  .    72     71   8.485  
3213 74.24  .  .    88     70   9.381  
3214 74.26  .  .    64     70   8      
3215 74.28  .  .    70     71   8.367  
3216 74.30  .  .    72     74   8.485  
3217 74.32  .  .    86     77   9.274  
3218 74.34  .  .    75     82   8.66   
3219 74.36  .  .    77     87   8.775  
3220 74.38  .  .    100    92   10     
3221 74.40  .  .    94     96   9.695  
3222 74.42  .  .    106    96   10.296 
3223 74.44  .  .    72     95   8.485  
3224 74.46  .  .    79     92   8.888  
3225 74.48  .  .    94     87   9.695  
3226 74.50  .  .    82     82   9.055  
3227 74.52  .  .    77     78   8.775  
3228 74.54  .  .    92     76   9.592  
3229 74.56  .  .    98     74   9.899  
3230 74.58  .  .    72     73   8.485  
3231 74.60  .  .    81     73   9      
3232 74.62  .  .    62     72   7.874  
3233 74.64  .  .    75     70   8.66   
3234 74.66  .  .    70     67   8.367  
3235 74.68  .  .    65     63   8.062  
3236 74.70  .  .    70     59   8.367  
3237 74.72  .  .    59     55   7.681  
3238 74.74  .  .    53     51   7.28   
3239 74.76  .  .    42     49   6.481  
3240 74.78  .  .    50     46   7.071  
3241 74.80  .  .    49     44   7      
3242 74.82  .  .    50     42   7.071  
3243 74.84  .  .    49     41   7      
3244 74.86  .  .    56     39   7.483  
3245 74.88  .  .    50     38   7.071  
3246 74.90  .  .    50     38   7.071  
3247 74.92  .  .    43     37   6.557  
3248 74.94  .  .    38     36   6.164  
3249 74.96  .  .    43     36   6.557  
3250 74.98  .  .    47     36   6.856  
3251 75.00  .  .    43     35   6.557  
3252 75.02  .  .    38     35   6.164  
3253 75.04  .  .    67     35   8.185  
3254 75.06  .  .    33     35   5.745  
3255 75.08  .  .    43     35   6.557  
3256 75.10  .  .    46     35   6.782  
3257 75.12  .  .    46     35   6.782  
3258 75.14  .  .    59     35   7.681  
3259 75.16  .  .    43     35   6.557  
3260 75.18  .  .    56     35   7.483  
3261 75.20  .  .    36     35   6      
3262 75.22  .  .    32     36   5.657  
3263 75.24  .  .    50     36   7.071  
3264 75.26  .  .    56     37   7.483  
3265 75.28  .  .    38     38   6.164  
3266 75.30  .  .    50     39   7.071  
3267 75.32  .  .    39     40   6.245  
3268 75.34  .  .    38     41   6.164  
3269 75.36  .  .    50     43   7.071  
3270 75.38  .  .    53     45   7.28   
3271 75.40  .  .    43     48   6.557  
3272 75.42  .  .    50     50   7.071  
3273 75.44  .  .    59     52   7.681  
3274 75.46  .  .    50     53   7.071  
3275 75.48  .  .    67     53   8.185  
3276 75.50  .  .    43     51   6.557  
3277 75.52  .  .    43     50   6.557  
3278 75.54  .  .    62     49   7.874  
3279 75.56  .  .    70     49   8.367  
3280 75.58  .  .    53     48   7.28   
3281 75.60  .  .    43     49   6.557  
3282 75.62  .  .    56     49   7.483  
3283 75.64  .  .    67     50   8.185  
3284 75.66  .  .    59     51   7.681  
3285 75.68  .  .    67     52   8.185  
3286 75.70  .  .    47     52   6.856  
3287 75.72  .  .    53     52   7.28   
3288 75.74  .  .    50     52   7.071  
3289 75.76  .  .    72     52   8.485  
3290 75.78  .  .    62     54   7.874  
3291 75.80  .  .    59     54   7.681  
3292 75.82  .  .    53     58   7.28   
3293 75.84  .  .    72     60   8.485  
3294 75.86  .  .    67     64   8.185  
3295 75.88  .  .    65     68   8.062  
3296 75.90  .  .    70     74   8.367  
3297 75.92  .  .    82     81   9.055  
3298 75.94  .  .    98     89   9.899  
3299 75.96  .  .    110    99   10.488 
3300 75.98  .  .    100    110  10     
3301 76.00  .  .    106    121  10.296 
3302 76.02  .  .    132    132  11.489 
3303 76.04  .  .    144    140  12     
3304 76.06  .  .    121    142  11     
3305 76.08  .  .    136    140  11.662 
3306 76.10  .  .    139    134  11.79  
3307 76.12  .  .    136    126  11.662 
3308 76.14  .  .    129    118  11.358 
3309 76.16  .  .    110    113  10.488 
3310 76.18  .  .    121    109  11     
3311 76.20  .  .    116    107  10.77  
3312 76.22  .  .    121    107  11     
3313 76.24  .  .    90     107  9.487  
3314 76.26  .  .    112    107  10.583 
3315 76.28  .  .    116    104  10.77  
3316 76.30  .  .    92     100  9.592  
3317 76.32  .  .    77     94   8.775  
3318 76.34  .  .    98     87   9.899  
3319 76.36  .  .    90     81   9.487  
3320 76.38  .  .    67     75   8.185  
3321 76.40  .  .    72     70   8.485  
3322 76.42  .  .    56     66   7.483  
3323 76.44  .  .    62     63   7.874  
3324 76.46  .  .    50     60   7.071  
3325 76.48  .  .    59     58   7.681  
3326 76.50  .  .    53     56   7.28   
3327 76.52  .  .    56     55   7.483  
3328 76.54  .  .    50     54   7.071  
3329 76.56  .  .    43     53   6.557  
3330 76.58  .  .    56     53   7.483  
3331 76.60  .  .    50     53   7.071  
3332 76.62  .  .    65     53   8.062  
3333 76.64  .  .    46     53   6.782  
3334 76.66  .  .    50     54   7.071  
3335 76.68  .  .    50     55   7.071  
3336 76.70  .  .    67     57   8.185  
3337 76.72  .  .    67     58   8.185  
3338 76.74  .  .    72     61   8.485  
3339 76.76  .  .    53     64   7.28   
3340 76.78  .  .    47     67   6.856  
3341 76.80  .  .    77     73   8.775  
3342 76.82  .  .    75     79   8.66   
3343 76.84  .  .    88     86   9.381  
3344 76.86  .  .    108    94   10.392 
3345 76.88  .  .    114    103  10.677 
3346 76.90  .  .    148    113  12.166 
3347 76.92  .  .    132    121  11.489 
3348 76.94  .  .    139    126  11.79  
3349 76.96  .  .    127    127  11.269 
3350 76.98  .  .    123    126  11.091 
3351 77.00  .  .    121    125  11     
3352 77.02  .  .    110    125  10.488 
3353 77.04  .  .    129    126  11.358 
3354 77.06  .  .    114    129  10.677 
3355 77.08  .  .    121    134  11     
3356 77.10  .  .    136    139  11.662 
3357 77.12  .  .    146    145  12.083 
3358 77.14  .  .    136    151  11.662 
3359 77.16  .  .    161    158  12.689 
3360 77.18  .  .    148    165  12.166 
3361 77.20  .  .    182    173  13.491 
3362 77.22  .  .    190    182  13.784 
3363 77.24  .  .    196    192  14     
3364 77.26  .  .    204    201  14.283 
3365 77.28  .  .    207    207  14.387 
3366 77.30  .  .    210    207  14.491 
3367 77.32  .  .    228    202  15.1   
3368 77.34  .  .    174    192  13.191 
3369 77.36  .  .    207    180  14.387 
3370 77.38  .  .    163    167  12.767 
3371 77.40  .  .    148    157  12.166 
3372 77.42  .  .    125    149  11.18  
3373 77.44  .  .    153    143  12.369 
3374 77.46  .  .    123    141  11.091 
3375 77.48  .  .    148    139  12.166 
3376 77.50  .  .    148    137  12.166 
3377 77.52  .  .    100    133  10     
3378 77.54  .  .    136    128  11.662 
3379 77.56  .  .    132    120  11.489 
3380 77.58  .  .    108    111  10.392 
3381 77.60  .  .    92     102  9.592  
3382 77.62  .  .    67     94   8.185  
3383 77.64  .  .    92     86   9.592  
3384 77.66  .  .    84     80   9.165  
3385 77.68  .  .    86     74   9.274  
3386 77.70  .  .    59     70   7.681  
3387 77.72  .  .    64     67   8      
3388 77.74  .  .    53     64   7.28   
3389 77.76  .  .    62     63   7.874  
3390 77.78  .  .    42     62   6.481  
3391 77.80  .  .    42     61   6.481  
3392 77.82  .  .    59     60   7.681  
3393 77.84  .  .    79     61   8.888  
3394 77.86  .  .    62     61   7.874  
3395 77.88  .  .    49     61   7      
3396 77.90  .  .    67     62   8.185  
3397 77.92  .  .    59     63   7.681  
3398 77.94  .  .    62     65   7.874  
3399 77.96  .  .    59     67   7.681  
3400 77.98  .  .    59     70   7.681  
3401 78.00  .  .    43     74   6.557  
3402 78.02  .  .    94     79   9.695  
3403 78.04  .  .    65     84   8.062  
3404 78.06  .  .    77     92   8.775  
3405 78.08  .  .    84     101  9.165  
3406 78.10  .  .    127    112  11.269 
3407 78.12  .  .    125    125  11.18  
3408 78.14  .  .    151    139  12.288 
3409 78.16  .  .    153    153  12.369 
3410 78.18  .  .    139    165  11.79  
3411 78.20  .  .    148    169  12.166 
3412 78.22  .  .    179    168  13.379 
3413 78.24  .  .    144    161  12     
3414 78.26  .  .    156    152  12.49  
3415 78.28  .  .    127    142  11.269 
3416 78.30  .  .    127    134  11.269 
3417 78.32  .  .    116    129  10.77  
3418 78.34  .  .    116    127  10.77  
3419 78.36  .  .    106    128  10.296 
3420 78.38  .  .    136    130  11.662 
3421 78.40  .  .    129    132  11.358 
3422 78.42  .  .    125    134  11.18  
3423 78.44  .  .    144    133  12     
3424 78.46  .  .    102    130  10.1   
3425 78.48  .  .    116    126  10.77  
3426 78.50  .  .    132    121  11.489 
3427 78.52  .  .    123    118  11.091 
3428 78.54  .  .    102    114  10.1   
3429 78.56  .  .    106    111  10.296 
3430 78.58  .  .    108    107  10.392 
3431 78.60  .  .    110    103  10.488 
3432 78.62  .  .    96     98   9.798  
3433 78.64  .  .    82     93   9.055  
3434 78.66  .  .    102    89   10.1   
3435 78.68  .  .    88     86   9.381  
3436 78.70  .  .    62     84   7.874  
3437 78.72  .  .    82     83   9.055  
3438 78.74  .  .    70     83   8.367  
3439 78.76  .  .    100    83   10     
3440 78.78  .  .    90     84   9.487  
3441 78.80  .  .    79     84   8.888  
3442 78.82  .  .    90     84   9.487  
3443 78.84  .  .    98     84   9.899  
3444 78.86  .  .    65     84   8.062  
3445 78.88  .  .    65     84   8.062  
3446 78.90  .  .    81     85   9      
3447 78.92  .  .    86     87   9.274  
3448 78.94  .  .    64     89   8      
3449 78.96  .  .    88     93   9.381  
3450 78.98  .  .    88     98   9.381  
3451 79.00  .  .    86     105  9.274  
3452 79.02  .  .    79     113  8.888  
3453 79.04  .  .    100    124  10     
3454 79.06  .  .    116    136  10.77  
3455 79.08  .  .    169    151  13     
3456 79.10  .  .    176    169  13.266 
3457 79.12  .  .    190    188  13.784 
3458 79.14  .  .    210    209  14.491 
3459 79.16  .  .    249    228  15.78  
3460 79.18  .  .    243    241  15.588 
3461 79.20  .  .    246    245  15.684 
3462 79.22  .  .    256    243  16     
3463 79.24  .  .    259    236  16.093 
3464 79.26  .  .    246    229  15.684 
3465 79.28  .  .    201    224  14.177 
3466 79.30  .  .    225    223  15     
3467 79.32  .  .    207    225  14.387 
3468 79.34  .  .    216    231  14.697 
3469 79.36  .  .    240    239  15.492 
3470 79.38  .  .    246    249  15.684 
3471 79.40  .  .    243    257  15.588 
3472 79.42  .  .    278    261  16.673 
3473 79.44  .  .    265    258  16.279 
3474 79.46  .  .    228    248  15.1   
3475 79.48  .  .    256    233  16     
3476 79.50  .  .    249    217  15.78  
3477 79.52  .  .    176    203  13.266 
3478 79.54  .  .    207    191  14.387 
3479 79.56  .  .    207    182  14.387 
3480 79.58  .  .    184    178  13.565 
3481 79.60  .  .    171    175  13.077 
3482 79.62  .  .    182    174  13.491 
3483 79.64  .  .    156    174  12.49  
3484 79.66  .  .    171    174  13.077 
3485 79.68  .  .    182    171  13.491 
3486 79.70  .  .    163    166  12.767 
3487 79.72  .  .    153    157  12.369 
3488 79.74  .  .    148    146  12.166 
3489 79.76  .  .    114    135  10.677 
3490 79.78  .  .    127    125  11.269 
3491 79.80  .  .    127    116  11.269 
3492 79.82  .  .    118    109  10.863 
3493 79.84  .  .    82     104  9.055  
3494 79.86  .  .    79     100  8.888  
3495 79.88  .  .    102    97   10.1   
3496 79.90  .  .    94     94   9.695  
3497 79.92  .  .    90     92   9.487  
3498 79.94  .  .    56     89   7.483  
3499 79.96  .  .    86     85   9.274  
3500 79.98  .  .    102    81   10.1   
3501 80.00  .  .    67     76   8.185  
3502 80.02  .  .    75     72   8.66   
3503 80.04  .  .    47     68   6.856  
3504 80.06  .  .    62     65   7.874  
3505 80.08  .  .    67     63   8.185  
3506 80.10  .  .    53     60   7.28   
3507 80.12  .  .    72     59   8.485  
3508 80.14  .  .    65     57   8.062  
3509 80.16  .  .    46     56   6.782  
3510 80.18  .  .    53     55   7.28   
3511 80.20  .  .    47     54   6.856  
3512 80.22  .  .    53     53   7.28   
3513 80.24  .  .    50     53   7.071  
3514 80.26  .  .    59     52   7.681  
3515 80.28  .  .    56     52   7.483  
3516 80.30  .  .    62     52   7.874  
3517 80.32  .  .    42     52   6.481  
3518 80.34  .  .    56     52   7.483  
3519 80.36  .  .    50     52   7.071  
3520 80.38  .  .    53     53   7.28   
3521 80.40  .  .    62     53   7.874  
3522 80.42  .  .    32     54   5.657  
3523 80.44  .  .    50     54   7.071  
3524 80.46  .  .    67     55   8.185  
3525 80.48  .  .    50     56   7.071  
3526 80.50  .  .    62     57   7.874  
3527 80.52  .  .    59     57   7.681  
3528 80.54  .  .    65     59   8.062  
3529 80.56  .  .    72     61   8.485  
3530 80.58  .  .    64     63   8      
3531 80.60  .  .    67     66   8.185  
3532 80.62  .  .    82     68   9.055  
3533 80.64  .  .    75     72   8.66   
3534 80.66  .  .    90     76   9.487  
3535 80.68  .  .    65     80   8.062  
3536 80.70  .  .    86     86   9.274  
3537 80.72  .  .    94     92   9.695  
3538 80.74  .  .    102    100  10.1   
3539 80.76  .  .    112    108  10.583 
3540 80.78  .  .    123    119  11.091 
3541 80.80  .  .    125    132  11.18  
3542 80.82  .  .    132    148  11.489 
3543 80.84  .  .    146    166  12.083 
3544 80.86  .  .    174    185  13.191 
3545 80.88  .  .    190    205  13.784 
3546 80.90  .  .    196    222  14     
3547 80.92  .  .    225    235  15     
3548 80.94  .  .    234    241  15.297 
3549 80.96  .  .    222    242  14.9   
3550 80.98  .  .    213    238  14.595 
3551 81.00  .  .    216    233  14.697 
3552 81.02  .  .    231    230  15.199 
3553 81.04  .  .    210    230  14.491 
3554 81.06  .  .    210    233  14.491 
3555 81.08  .  .    243    239  15.588 
3556 81.10  .  .    201    246  14.177 
3557 81.12  .  .    201    251  14.177 
3558 81.14  .  .    265    253  16.279 
3559 81.16  .  .    240    250  15.492 
3560 81.18  .  .    237    240  15.395 
3561 81.20  .  .    213    228  14.595 
3562 81.22  .  .    198    214  14.071 
3563 81.24  .  .    204    200  14.283 
3564 81.26  .  .    174    188  13.191 
3565 81.28  .  .    169    179  13     
3566 81.30  .  .    139    171  11.79  
3567 81.32  .  .    156    164  12.49  
3568 81.34  .  .    163    158  12.767 
3569 81.36  .  .    134    151  11.576 
3570 81.38  .  .    123    142  11.091 
3571 81.40  .  .    121    133  11     
3572 81.42  .  .    134    124  11.576 
3573 81.44  .  .    84     114  9.165  
3574 81.46  .  .    112    106  10.583 
3575 81.48  .  .    94     99   9.695  
3576 81.50  .  .    94     93   9.695  
3577 81.52  .  .    92     88   9.592  
3578 81.54  .  .    88     83   9.381  
3579 81.56  .  .    79     79   8.888  
3580 81.58  .  .    67     75   8.185  
3581 81.60  .  .    79     71   8.888  
3582 81.62  .  .    82     68   9.055  
3583 81.64  .  .    64     64   8      
3584 81.66  .  .    77     61   8.775  
3585 81.68  .  .    56     59   7.483  
3586 81.70  .  .    50     57   7.071  
3587 81.72  .  .    50     55   7.071  
3588 81.74  .  .    56     54   7.483  
3589 81.76  .  .    72     53   8.485  
3590 81.78  .  .    36     52   6      
3591 81.80  .  .    59     51   7.681  
3592 81.82  .  .    37     50   6.083  
3593 81.84  .  .    65     50   8.062  
3594 81.86  .  .    43     50   6.557  
3595 81.88  .  .    43     49   6.557  
3596 81.90  .  .    50     50   7.071  
3597 81.92  .  .    49     51   7      
3598 81.94  .  .    50     51   7.071  
3599 81.96  .  .    50     52   7.071  
3600 81.98  .  .    64     53   8      
3601 82.00  .  .    59     54   7.681  
3602 82.02  .  .    77     55   8.775  
3603 82.04  .  .    59     55   7.681  
3604 82.06  .  .    56     55   7.483  
3605 82.08  .  .    56     55   7.483  
3606 82.10  .  .    46     54   6.782  
3607 82.12  .  .    65     53   8.062  
3608 82.14  .  .    59     53   7.681  
3609 82.16  .  .    38     53   6.164  
3610 82.18  .  .    70     52   8.367  
3611 82.20  .  .    56     52   7.483  
3612 82.22  .  .    50     53   7.071  
3613 82.24  .  .    47     53   6.856  
3614 82.26  .  .    65     54   8.062  
3615 82.28  .  .    59     54   7.681  
3616 82.30  .  .    65     54   8.062  
3617 82.32  .  .    53     55   7.28   
3618 82.34  .  .    56     55   7.483  
3619 82.36  .  .    43     55   6.557  
3620 82.38  .  .    59     55   7.681  
3621 82.40  .  .    67     56   8.185  
3622 82.42  .  .    67     57   8.185  
3623 82.44  .  .    67     59   8.185  
3624 82.46  .  .    62     61   7.874  
3625 82.48  .  .    79     64   8.888  
3626 82.50  .  .    56     67   7.483  
3627 82.52  .  .    86     71   9.274  
3628 82.54  .  .    84     76   9.165  
3629 82.56  .  .    92     82   9.592  
3630 82.58  .  .    86     87   9.274  
3631 82.60  .  .    121    93   11     
3632 82.62  .  .    90     98   9.487  
3633 82.64  .  .    94     100  9.695  
3634 82.66  .  .    98     101  9.899  
3635 82.68  .  .    112    100  10.583 
3636 82.70  .  .    110    97   10.488 
3637 82.72  .  .    86     93   9.274  
3638 82.74  .  .    86     90   9.274  
3639 82.76  .  .    84     88   9.165  
3640 82.78  .  .    82     87   9.055  
3641 82.80  .  .    72     87   8.485  
3642 82.82  .  .    108    88   10.392 
3643 82.84  .  .    81     89   9      
3644 82.86  .  .    79     90   8.888  
3645 82.88  .  .    88     92   9.381  
3646 82.90  .  .    100    92   10     
3647 82.92  .  .    79     92   8.888  
3648 82.94  .  .    110    92   10.488 
3649 82.96  .  .    108    92   10.392 
3650 82.98  .  .    84     92   9.165  
3651 83.00  .  .    102    94   10.1   
3652 83.02  .  .    81     96   9      
3653 83.04  .  .    94     99   9.695  
3654 83.06  .  .    84     103  9.165  
3655 83.08  .  .    88     107  9.381  
3656 83.10  .  .    88     109  9.381  
3657 83.12  .  .    110    112  10.488 
3658 83.14  .  .    121    113  11     
3659 83.16  .  .    108    114  10.392 
3660 83.18  .  .    127    115  11.269 
3661 83.20  .  .    116    116  10.77  
3662 83.22  .  .    108    118  10.392 
3663 83.24  .  .    108    121  10.392 
3664 83.26  .  .    104    125  10.198 
3665 83.28  .  .    127    129  11.269 
3666 83.30  .  .    121    133  11     
3667 83.32  .  .    114    136  10.677 
3668 83.34  .  .    141    138  11.874 
3669 83.36  .  .    136    138  11.662 
3670 83.38  .  .    127    139  11.269 
3671 83.40  .  .    121    140  11     
3672 83.42  .  .    121    142  11     
3673 83.44  .  .    136    146  11.662 
3674 83.46  .  .    158    151  12.57  
3675 83.48  .  .    166    159  12.884 
3676 83.50  .  .    166    167  12.884 
3677 83.52  .  .    176    176  13.266 
3678 83.54  .  .    166    182  12.884 
3679 83.56  .  .    196    185  14     
3680 83.58  .  .    176    184  13.266 
3681 83.60  .  .    169    179  13     
3682 83.62  .  .    151    172  12.288 
3683 83.64  .  .    144    166  12     
3684 83.66  .  .    163    160  12.767 
3685 83.68  .  .    151    156  12.288 
3686 83.70  .  .    141    152  11.874 
3687 83.72  .  .    144    149  12     
3688 83.74  .  .    129    145  11.358 
3689 83.76  .  .    146    142  12.083 
3690 83.78  .  .    144    138  12     
3691 83.80  .  .    144    134  12     
3692 83.82  .  .    121    129  11     
3693 83.84  .  .    121    123  11     
3694 83.86  .  .    136    116  11.662 
3695 83.88  .  .    106    110  10.296 
3696 83.90  .  .    108    104  10.392 
3697 83.92  .  .    96     98   9.798  
3698 83.94  .  .    84     93   9.165  
3699 83.96  .  .    94     89   9.695  
3700 83.98  .  .    70     84   8.367  
3701 84.00  .  .    65     79   8.062  
3702 84.02  .  .    88     74   9.381  
3703 84.04  .  .    75     70   8.66   
3704 84.06  .  .    84     66   9.165  
3705 84.08  .  .    53     63   7.28   
3706 84.10  .  .    75     60   8.66   
3707 84.12  .  .    59     57   7.681  
3708 84.14  .  .    70     55   8.367  
3709 84.16  .  .    56     53   7.483  
3710 84.18  .  .    62     51   7.874  
3711 84.20  .  .    65     50   8.062  
3712 84.22  .  .    49     49   7      
3713 84.24  .  .    38     48   6.164  
3714 84.26  .  .    72     47   8.485  
3715 84.28  .  .    38     46   6.164  
3716 84.30  .  .    38     45   6.164  
3717 84.32  .  .    42     45   6.481  
3718 84.34  .  .    46     44   6.782  
3719 84.36  .  .    47     44   6.856  
3720 84.38  .  .    50     44   7.071  
3721 84.40  .  .    67     43   8.185  
3722 84.42  .  .    47     43   6.856  
3723 84.44  .  .    43     43   6.557  
3724 84.46  .  .    47     43   6.856  
3725 84.48  .  .    38     43   6.164  
3726 84.50  .  .    62     43   7.874  
3727 84.52  .  .    46     43   6.782  
3728 84.54  .  .    42     43   6.481  
3729 84.56  .  .    49     43   7      
3730 84.58  .  .    43     44   6.557  
3731 84.60  .  .    32     44   5.657  
3732 84.62  .  .    53     45   7.28   
3733 84.64  .  .    50     45   7.071  
3734 84.66  .  .    47     46   6.856  
3735 84.68  .  .    49     47   7      
3736 84.70  .  .    75     49   8.66   
3737 84.72  .  .    53     50   7.28   
3738 84.74  .  .    56     52   7.483  
3739 84.76  .  .    59     54   7.681  
3740 84.78  .  .    72     56   8.485  
3741 84.80  .  .    64     59   8      
3742 84.82  .  .    67     62   8.185  
3743 84.84  .  .    72     66   8.485  
3744 84.86  .  .    82     70   9.055  
3745 84.88  .  .    81     75   9      
3746 84.90  .  .    81     80   9      
3747 84.92  .  .    79     84   8.888  
3748 84.94  .  .    67     86   8.185  
3749 84.96  .  .    96     87   9.798  
3750 84.98  .  .    84     87   9.165  
3751 85.00  .  .    98     85   9.899  
3752 85.02  .  .    86     83   9.274  
3753 85.04  .  .    112    81   10.583 
3754 85.06  .  .    59     79   7.681  
3755 85.08  .  .    65     79   8.062  
3756 85.10  .  .    92     79   9.592  
3757 85.12  .  .    82     80   9.055  
3758 85.14  .  .    84     82   9.165  
3759 85.16  .  .    79     85   8.888  
3760 85.18  .  .    106    87   10.296 
3761 85.20  .  .    96     89   9.798  
3762 85.22  .  .    86     90   9.274  
3763 85.24  .  .    100    89   10     
3764 85.26  .  .    96     87   9.798  
3765 85.28  .  .    98     85   9.899  
3766 85.30  .  .    72     82   8.485  
3767 85.32  .  .    84     78   9.165  
3768 85.34  .  .    79     74   8.888  
3769 85.36  .  .    75     71   8.66   
3770 85.38  .  .    62     68   7.874  
3771 85.40  .  .    59     66   7.681  
3772 85.42  .  .    72     64   8.485  
3773 85.44  .  .    56     63   7.483  
3774 85.46  .  .    70     62   8.367  
3775 85.48  .  .    65     63   8.062  
3776 85.50  .  .    50     62   7.071  
3777 85.52  .  .    42     61   6.481  
3778 85.54  .  .    62     60   7.874  
3779 85.56  .  .    50     59   7.071  
3780 85.58  .  .    64     58   8      
3781 85.60  .  .    82     57   9.055  
3782 85.62  .  .    62     56   7.874  
3783 85.64  .  .    67     55   8.185  
3784 85.66  .  .    70     54   8.367  
3785 85.68  .  .    59     54   7.681  
3786 85.70  .  .    75     55   8.66   
3787 85.72  .  .    59     55   7.681  
3788 85.74  .  .    43     57   6.557  
3789 85.76  .  .    50     58   7.071  
3790 85.78  .  .    53     59   7.28   
3791 85.80  .  .    72     60   8.485  
3792 85.82  .  .    56     61   7.483  
3793 85.84  .  .    59     62   7.681  
3794 85.86  .  .    59     63   7.681  
3795 85.88  .  .    59     63   7.681  
3796 85.90  .  .    65     64   8.062  
3797 85.92  .  .    50     65   7.071  
3798 85.94  .  .    59     66   7.681  
3799 85.96  .  .    47     68   6.856  
3800 85.98  .  .    67     70   8.185  
3801 86.00  .  .    77     72   8.775  
3802 86.02  .  .    59     73   7.681  
3803 86.04  .  .    88     73   9.381  
3804 86.06  .  .    67     73   8.185  
3805 86.08  .  .    67     72   8.185  
3806 86.10  .  .    59     70   7.681  
3807 86.12  .  .    56     68   7.483  
3808 86.14  .  .    72     66   8.485  
3809 86.16  .  .    65     65   8.062  
3810 86.18  .  .    49     64   7      
3811 86.20  .  .    67     64   8.185  
3812 86.22  .  .    39     64   6.245  
3813 86.24  .  .    59     64   7.681  
3814 86.26  .  .    62     65   7.874  
3815 86.28  .  .    67     65   8.185  
3816 86.30  .  .    70     65   8.367  
3817 86.32  .  .    59     65   7.681  
3818 86.34  .  .    56     65   7.483  
3819 86.36  .  .    67     65   8.185  
3820 86.38  .  .    53     65   7.28   
3821 86.40  .  .    82     66   9.055  
3822 86.42  .  .    62     67   7.874  
3823 86.44  .  .    65     69   8.062  
3824 86.46  .  .    90     71   9.487  
3825 86.48  .  .    84     74   9.165  
3826 86.50  .  .    72     78   8.485  
3827 86.52  .  .    67     83   8.185  
3828 86.54  .  .    88     87   9.381  
3829 86.56  .  .    100    94   10     
3830 86.58  .  .    121    100  11     
3831 86.60  .  .    108    106  10.392 
3832 86.62  .  .    116    111  10.77  
3833 86.64  .  .    139    115  11.79  
3834 86.66  .  .    90     116  9.487  
3835 86.68  .  .    114    116  10.677 
3836 86.70  .  .    136    115  11.662 
3837 86.72  .  .    106    115  10.296 
3838 86.74  .  .    110    115  10.488 
3839 86.76  .  .    110    116  10.488 
3840 86.78  .  .    94     117  9.695  
3841 86.80  .  .    102    119  10.1   
3842 86.82  .  .    110    121  10.488 
3843 86.84  .  .    114    124  10.677 
3844 86.86  .  .    114    128  10.677 
3845 86.88  .  .    129    133  11.358 
3846 86.90  .  .    116    138  10.77  
3847 86.92  .  .    144    144  12     
3848 86.94  .  .    161    151  12.689 
3849 86.96  .  .    144    159  12     
3850 86.98  .  .    163    168  12.767 
3851 87.00  .  .    176    179  13.266 
3852 87.02  .  .    179    188  13.379 
3853 87.04  .  .    193    195  13.892 
3854 87.06  .  .    166    197  12.884 
3855 87.08  .  .    166    194  12.884 
3856 87.10  .  .    176    186  13.266 
3857 87.12  .  .    193    177  13.892 
3858 87.14  .  .    144    167  12     
3859 87.16  .  .    176    160  13.266 
3860 87.18  .  .    176    155  13.266 
3861 87.20  .  .    148    152  12.166 
3862 87.22  .  .    136    153  11.662 
3863 87.24  .  .    156    155  12.49  
3864 87.26  .  .    123    158  11.091 
3865 87.28  .  .    141    162  11.874 
3866 87.30  .  .    184    163  13.565 
3867 87.32  .  .    179    162  13.379 
3868 87.34  .  .    153    157  12.369 
3869 87.36  .  .    136    150  11.662 
3870 87.38  .  .    136    142  11.662 
3871 87.40  .  .    129    134  11.358 
3872 87.42  .  .    125    127  11.18  
3873 87.44  .  .    121    121  11     
3874 87.46  .  .    114    117  10.677 
3875 87.48  .  .    110    114  10.488 
3876 87.50  .  .    108    112  10.392 
3877 87.52  .  .    96     111  9.798  
3878 87.54  .  .    114    108  10.677 
3879 87.56  .  .    112    105  10.583 
3880 87.58  .  .    100    101  10     
3881 87.60  .  .    84     96   9.165  
3882 87.62  .  .    96     92   9.798  
3883 87.64  .  .    108    88   10.392 
3884 87.66  .  .    94     84   9.695  
3885 87.68  .  .    88     81   9.381  
3886 87.70  .  .    72     78   8.485  
3887 87.72  .  .    82     76   9.055  
3888 87.74  .  .    62     74   7.874  
3889 87.76  .  .    82     73   9.055  
3890 87.78  .  .    82     71   9.055  
3891 87.80  .  .    67     71   8.185  
3892 87.82  .  .    72     69   8.485  
3893 87.84  .  .    65     68   8.062  
3894 87.86  .  .    70     67   8.367  
3895 87.88  .  .    75     66   8.66   
3896 87.90  .  .    75     65   8.66   
3897 87.92  .  .    79     65   8.888  
3898 87.94  .  .    67     64   8.185  
3899 87.96  .  .    75     65   8.66   
3900 87.98  .  .    65     65   8.062  
3901 88.00  .  .    65     66   8.062  
3902 88.02  .  .    50     68   7.071  
3903 88.04  .  .    90     70   9.487  
3904 88.06  .  .    75     73   8.66   
3905 88.08  .  .    104    76   10.198 
3906 88.10  .  .    98     79   9.899  
3907 88.12  .  .    90     82   9.487  
3908 88.14  .  .    84     84   9.165  
3909 88.16  .  .    79     84   8.888  
3910 88.18  .  .    100    83   10     
3911 88.20  .  .    79     81   8.888  
3912 88.22  .  .    100    78   10     
3913 88.24  .  .    92     76   9.592  
3914 88.26  .  .    82     74   9.055  
3915 88.28  .  .    62     72   7.874  
3916 88.30  .  .    94     71   9.695  
3917 88.32  .  .    86     71   9.274  
3918 88.34  .  .    75     70   8.66   
3919 88.36  .  .    79     71   8.888  
3920 88.38  .  .    86     71   9.274  
3921 88.40  .  .    82     71   9.055  
3922 88.42  .  .    90     70   9.487  
3923 88.44  .  .    84     69   9.165  
3924 88.46  .  .    86     67   9.274  
3925 88.48  .  .    67     65   8.185  
3926 88.50  .  .    72     63   8.485  
3927 88.52  .  .    72     60   8.485  
3928 88.54  .  .    72     59   8.485  
3929 88.56  .  .    59     57   7.681  
3930 88.58  .  .    62     55   7.874  
3931 88.60  .  .    79     54   8.888  
3932 88.62  .  .    81     53   9      
3933 88.64  .  .    59     52   7.681  
3934 88.66  .  .    56     51   7.483  
3935 88.68  .  .    59     51   7.681  
3936 88.70  .  .    70     51   8.367  
3937 88.72  .  .    50     50   7.071  
3938 88.74  .  .    59     50   7.681  
3939 88.76  .  .    65     50   8.062  
3940 88.78  .  .    72     51   8.485  
3941 88.80  .  .    53     51   7.28   
3942 88.82  .  .    49     51   7      
3943 88.84  .  .    65     51   8.062  
3944 88.86  .  .    43     52   6.557  
3945 88.88  .  .    59     53   7.681  
3946 88.90  .  .    77     54   8.775  
3947 88.92  .  .    50     55   7.071  
3948 88.94  .  .    82     57   9.055  
3949 88.96  .  .    75     58   8.66   
3950 88.98  .  .    67     60   8.185  
3951 89.00  .  .    53     62   7.28   
3952 89.02  .  .    75     64   8.66   
3953 89.04  .  .    72     66   8.485  
3954 89.06  .  .    77     70   8.775  
3955 89.08  .  .    88     73   9.381  
3956 89.10  .  .    84     78   9.165  
3957 89.12  .  .    92     83   9.592  
3958 89.14  .  .    100    89   10     
3959 89.16  .  .    100    96   10     
3960 89.18  .  .    116    105  10.77  
3961 89.20  .  .    123    115  11.091 
3962 89.22  .  .    123    126  11.091 
3963 89.24  .  .    144    139  12     
3964 89.26  .  .    144    152  12     
3965 89.28  .  .    136    165  11.662 
3966 89.30  .  .    169    175  13     
3967 89.32  .  .    174    182  13.191 
3968 89.34  .  .    148    184  12.166 
3969 89.36  .  .    158    181  12.57  
3970 89.38  .  .    146    174  12.083 
3971 89.40  .  .    151    165  12.288 
3972 89.42  .  .    129    155  11.358 
3973 89.44  .  .    144    146  12     
3974 89.46  .  .    121    139  11     
3975 89.48  .  .    144    134  12     
3976 89.50  .  .    116    131  10.77  
3977 89.52  .  .    141    130  11.874 
3978 89.54  .  .    110    130  10.488 
3979 89.56  .  .    132    130  11.489 
3980 89.58  .  .    134    131  11.576 
3981 89.60  .  .    84     130  9.165  
3982 89.62  .  .    125    127  11.18  
3983 89.64  .  .    118    121  10.863 
3984 89.66  .  .    108    114  10.392 
3985 89.68  .  .    104    106  10.198 
3986 89.70  .  .    96     98   9.798  
3987 89.72  .  .    116    91   10.77  
3988 89.74  .  .    94     84   9.695  
3989 89.76  .  .    79     77   8.888  
3990 89.78  .  .    70     72   8.367  
3991 89.80  .  .    92     68   9.592  
3992 89.82  .  .    88     64   9.381  
3993 89.84  .  .    75     60   8.66   
3994 89.86  .  .    53     57   7.28   
3995 89.88  .  .    81     55   9      
3996 89.90  .  .    65     53   8.062  
3997 89.92  .  .    59     51   7.681  
3998 89.94  .  .    53     49   7.28   
3999 89.96  .  .    62     48   7.874  
4000 89.98  .  .    70     46   8.367  
4001 90.00  .  .    47     45   6.856  
                                                
                                   



_refine_ls_goodness_of_fit_all
1.43
_chemical_formula_iupac
'Cd Bi O2 Cl'
_chemical_formula_structural
'Cd Bi O2 Cl'
_cell_formula_units_Z
2
_chemical_formula_moiety
'Cd Bi O2 Cl'
_cell_length_a
7.5878(7)
_cell_length_b
4.1397(4)
_cell_length_c
6.0594(6)
_diffrn_radiation_type
CuK\a
_computing_molecular_graphics
'DIAMOND (Brandenburg, 1999)'
_chemical_formula_weight
388.84
_refine_ls_number_restraints
0
_computing_structure_refinement
'local modification of DBWM'
_refine_ls_number_constraints
5
_refine_ls_weighting_scheme
sigma
_symmetry_space_group_name_H-M
'P 1 21/m 1'
_cell_angle_gamma
90
_cell_measurement_temperature
293
_computing_data_reduction
'XDIG (local program)'
_computing_cell_refinement
'local modification of DBWM (Wiles & Young, 1981)'
_refine_special_details
;
R_prof-backgr = 0.076
;
_diffrn_radiation_monochromator
graphite
_chemical_name_systematic
;
Bismuth cadmium dioxide chloride
;
_computing_structure_solution
'EXPO (Altomare et al., 1995)'
_cell_volume
186.50(3)
_refine_ls_structure_factor_coef
Fsqd
_refine_ls_hydrogen_treatment
none
_symmetry_cell_setting
monoclinic
_diffrn_ambient_temperature
295
_chemical_name_common
'bismuth cadmium oxide chloride'
_diffrn_radiation_wavelength
1.5418
_computing_data_collection
'DRON-4 data collection software'
_refine_ls_extinction_method
none
_diffrn_measurement_device_type
'DRON-4 powder diffractometer'
_cell_angle_alpha
90
_refine_ls_number_parameters
40
_chemical_formula_sum
'Bi Cd Cl O2'
_refine_ls_matrix_type
full
_cell_angle_beta
101.529(11)
loop_
_symmetry_equiv_pos_as_xyz
x,y,z
-x,-y,-z
-x,y+1/2,-z
x,1/2-y,z

loop_
_atom_type_symbol
_atom_type_description
_atom_type_scat_dispersion_real
_atom_type_scat_dispersion_imag
_atom_type_scat_source
O O .047 .032 
;Cromer(1971) Int. Tables Vol. IV
;
CL CL .348 .702 
;Cromer(1971) Int. Tables Vol. IV
;
CD CD -.079 4.653 
;Cromer(1971) Int. Tables Vol. IV
;
BI BI -4.776 8.930 
;Cromer(1971) Int. Tables Vol. IV
;

loop_
_atom_site_label
_atom_site_fract_x
_atom_site_fract_y
_atom_site_fract_z
_atom_site_u_iso_or_equiv
_atom_site_thermal_displace_type
_atom_site_occupancy
_atom_site_type_symbol
O1 .864(2) .2500 .513(2) .0199(5) Uiso 1 O
O2 .400(2) .2500 .555(2) .02115(9) Uiso 1 O
Cl .8182(9) .7500 .0360(10) .00106(11) Uiso 1 Cl
Cd .9092(4) .7500 .6637(4) .00798(11) Uiso 1 Cd
Bi .5954(2) .2500 .3101(2) .00139(6) Uiso 1 Bi

loop_
_geom_bond_atom_site_label_1
_geom_bond_atom_site_label_2
_geom_bond_site_symmetry_1
_geom_bond_site_symmetry_2
_geom_bond_distance
_geom_bond_publ_flag
Bi O1 . . 2.160(14) yes
Bi O2 . . 2.298(15) yes
Bi O2 . 3_656 2.223(5) yes
Bi O2 . 3_646 2.222(5) yes
Cd O2 . 3_656 2.453(14) yes
Cd O1 . 3_756 2.201(16) yes
Cd O1 . . 2.261(5) yes
Cd O1 . 1_565 2.259(5) yes
Cd Cl . 1_556 2.488(7) yes

loop_
_geom_contact_atom_site_label_1
_geom_contact_atom_site_label_2
_geom_contact_distance
_geom_contact_site_symmetry_1
_geom_contact_site_symmetry_2
_geom_contact_publ_flag
Bi Cl 3.320(6) . 1_545 yes
Cd Cl 3.220(5) . 3_746 yes
Bi Cl 3.408(6) . 3_645 yes

loop_
_geom_angle_atom_site_label_1
_geom_angle_atom_site_label_2
_geom_angle_atom_site_label_3
_geom_angle_site_symmetry_1
_geom_angle_site_symmetry_2
_geom_angle_site_symmetry_3
_geom_angle
_geom_angle_publ_flag
Bi O1 Cd . . 3_746 117.6(5) no
Bi O2 Cd . . 3_646 108.8(4) no
O2 Bi O2 3_656 . . 74.2(4) no
O1 Cd O2 . . 3_656 74.4(4) no
O1 Cd O1 . . 3_756 82.8(4) no
O1 Cd O1 . . 1_565 132.6(4) no
O1 Bi O2 . . . 106.8(4) no
O2 Bi O2 3_646 . 3_656 137.2(4) no



# powder data simulated using PLATON:

data_I_simulated_1.5418

_publcif_pd_cifplot 'simulated 2021-03-25'

