data_V
#=======================================================================


loop_
 _pd_proc_point_id                                           
 _pd_proc_2theta_corrected                                   
 _pd_proc_intensity_net                                      
 _pd_calc_intensity_net                                      
 _pd_proc_ls_weight                                          
         1         8.5189        7705.00        8227.12          87.78
         2         8.5356        7875.00        8225.71          88.74
         3         8.5523        7889.00        8224.29          88.82
         4         8.5690        7737.00        8222.86          87.96
         5         8.5857        7771.00        8221.41          88.15
         6         8.6025        7754.00        8219.94          88.06
         7         8.6192        7863.00        8218.46          88.67
         8         8.6359        7857.00        8216.97          88.64
         9         8.6526        7734.00        8215.46          87.94
        10         8.6693        7665.00        8213.94          87.55
        11         8.6860        7815.00        8212.40          88.40
        12         8.7027        7794.00        8210.85          88.28
        13         8.7194        7671.00        8209.28          87.58
        14         8.7361        7659.00        8207.71          87.52
        15         8.7529        7622.00        8206.11          87.30
        16         8.7696        7612.00        8204.51          87.25
        17         8.7863        7787.00        8202.88          88.24
        18         8.8030        7936.00        8201.25          89.08
        19         8.8197        7675.00        8199.60          87.61
        20         8.8364        7614.00        8197.94          87.26
        21         8.8531        7782.00        8196.27          88.22
        22         8.8698        7664.00        8194.58          87.54
        23         8.8865        7686.00        8192.88          87.67
        24         8.9033        7789.00        8191.16          88.26
        25         8.9200        7769.00        8189.43          88.14
        26         8.9367        7681.00        8187.69          87.64
        27         8.9534        7700.00        8185.94          87.75
        28         8.9701        7687.00        8184.17          87.68
        29         8.9868        7784.00        8182.39          88.23
        30         9.0035        7806.00        8180.60          88.35
        31         9.0202        7539.00        8178.79          86.83
        32         9.0369        7657.00        8176.97          87.50
        33         9.0537        7617.00        8175.14          87.28
        34         9.0704        7724.00        8173.29          87.89
        35         9.0871        7713.00        8171.44          87.82
        36         9.1038        7761.00        8169.57          88.10
        37         9.1205        7687.00        8167.69          87.68
        38         9.1372        7658.00        8165.79          87.51
        39         9.1539        7665.00        8163.89          87.55
        40         9.1706        7597.00        8161.97          87.16
        41         9.1874        7777.00        8160.04          88.19
        42         9.2041        7657.00        8158.10          87.50
        43         9.2208        7502.00        8156.14          86.61
        44         9.2375        7723.00        8154.18          87.88
        45         9.2542        7693.00        8152.20          87.71
        46         9.2709        7688.00        8150.21          87.68
        47         9.2876        7474.00        8148.21          86.45
        48         9.3043        7629.00        8146.19          87.34
        49         9.3210        7493.00        8144.17          86.56
        50         9.3378        7809.00        8142.13          88.37
        51         9.3545        7716.00        8140.09          87.84
        52         9.3712        7572.00        8138.03          87.02
        53         9.3879        7698.00        8135.96          87.74
        54         9.4046        7662.00        8133.87          87.53
        55         9.4213        7614.00        8131.78          87.26
        56         9.4380        7781.00        8129.68          88.21
        57         9.4547        7717.00        8127.56          87.85
        58         9.4714        7775.00        8125.44          88.18
        59         9.4882        7682.00        8123.30          87.65
        60         9.5049        7745.00        8121.15          88.01
        61         9.5216        7677.00        8118.99          87.62
        62         9.5383        7759.00        8116.82          88.09
        63         9.5550        7725.00        8114.64          87.89
        64         9.5717        7689.00        8112.45          87.69
        65         9.5884        7641.00        8110.25          87.41
        66         9.6051        7678.00        8108.04          87.62
        67         9.6218        7649.00        8105.81          87.46
        68         9.6386        7647.00        8103.58          87.45
        69         9.6553        7822.00        8101.34          88.44
        70         9.6720        7640.00        8099.09          87.41
        71         9.6887        7847.00        8096.82          88.58
        72         9.7054        7835.00        8094.55          88.52
        73         9.7221        7770.00        8092.26          88.15
        74         9.7388        7871.00        8089.97          88.72
        75         9.7555        7875.00        8087.67          88.74
        76         9.7722        7930.00        8085.35          89.05
        77         9.7890        7846.00        8083.03          88.58
        78         9.8057        7914.00        8080.70          88.96
        79         9.8224        7971.00        8078.35          89.28
        80         9.8391        7872.00        8076.00          88.72
        81         9.8558        7939.00        8073.64          89.10
        82         9.8725        7919.00        8071.27          88.99
        83         9.8892        7826.00        8068.88          88.46
        84         9.9059        7915.00        8066.49          88.97
        85         9.9226        7962.00        8064.09          89.23
        86         9.9394        7919.00        8061.68          88.99
        87         9.9561        7897.00        8059.27          88.87
        88         9.9728        8078.00        8056.84          89.88
        89         9.9895        8113.00        8054.40          90.07
        90        10.0062        7934.00        8051.95          89.07
        91        10.0229        8014.00        8049.50          89.52
        92        10.0396        8064.00        8047.04          89.80
        93        10.0563        8169.00        8044.56          90.38
        94        10.0730        8116.00        8042.08          90.09
        95        10.0898        8375.00        8039.59          91.51
        96        10.1065        8077.00        8037.09          89.87
        97        10.1232        8283.00        8034.58          91.01
        98        10.1399        8222.00        8032.07          90.68
        99        10.1566        8148.00        8029.54          90.27
       100        10.1733        8010.00        8027.01          89.50
       101        10.1900        8207.00        8024.47          90.59
       102        10.2067        8435.00        8021.92          91.84
       103        10.2235        8139.00        8019.36          90.22
       104        10.2402        8344.00        8016.79          91.35
       105        10.2569        8133.00        8014.21          90.18
       106        10.2736        8229.00        8011.63          90.71
       107        10.2903        8298.00        8009.04          91.09
       108        10.3070        8229.00        8006.44          90.71
       109        10.3237        8290.00        8003.83          91.05
       110        10.3404        8324.00        8001.22          91.24
       111        10.3572        8351.00        7998.59          91.38
       112        10.3739        8283.00        7995.96          91.01
       113        10.3906        8332.00        7993.32          91.28
       114        10.4073        8344.00        7990.67          91.35
       115        10.4240        8230.00        7988.02          90.72
       116        10.4407        8237.00        7985.36          90.76
       117        10.4574        8327.00        7982.69          91.25
       118        10.4741        8344.00        7980.01          91.35
       119        10.4908        8193.00        7977.33          90.52
       120        10.5075        8156.00        7974.63          90.31
       121        10.5243        8368.00        7971.93          91.48
       122        10.5410        8338.00        7969.23          91.31
       123        10.5577        8414.00        7966.51          91.73
       124        10.5744        8226.00        7963.79          90.70
       125        10.5911        8377.00        7961.06          91.53
       126        10.6078        8347.00        7958.33          91.36
       127        10.6245        8247.00        7955.58          90.81
       128        10.6412        8263.00        7952.83          90.90
       129        10.6579        8257.00        7950.08          90.87
       130        10.6747        8360.00        7947.32          91.43
       131        10.6914        8263.00        7944.54          90.90
       132        10.7081        8056.00        7941.77          89.76
       133        10.7248        8113.00        7938.98          90.07
       134        10.7415        8405.00        7936.19          91.68
       135        10.7582        8224.00        7933.39          90.69
       136        10.7749        8125.00        7930.59          90.14
       137        10.7916        8251.00        7927.78          90.83
       138        10.8083        8379.00        7924.96          91.54
       139        10.8251        8112.00        7922.14          90.07
       140        10.8418        8373.00        7919.31          91.50
       141        10.8585        8336.00        7916.48          91.30
       142        10.8752        8241.00        7913.63          90.78
       143        10.8919        8164.00        7910.78          90.35
       144        10.9086        8202.00        7907.93          90.56
       145        10.9253        8382.00        7905.07          91.55
       146        10.9420        8229.00        7902.20          90.71
       147        10.9587        8183.00        7899.33          90.46
       148        10.9755        8299.00        7896.45          91.10
       149        10.9922        8061.00        7893.56          89.78
       150        11.0089        8170.00        7890.67          90.39
       151        11.0256        8203.00        7887.77          90.57
       152        11.0423        8385.00        7884.87          91.57
       153        11.0590        8347.00        7881.96          91.36
       154        11.0757        8098.00        7879.05          89.99
       155        11.0924        8214.00        7876.13          90.63
       156        11.1091        8013.00        7873.20          89.52
       157        11.1259        8205.00        7870.27          90.58
       158        11.1426        8195.00        7867.34          90.53
       159        11.1593        8167.00        7864.39          90.37
       160        11.1760        8384.00        7861.44          91.56
       161        11.1927        8198.00        7858.49          90.54
       162        11.2094        8317.00        7855.53          91.20
       163        11.2261        8329.00        7852.57          91.26
       164        11.2428        8292.00        7849.60          91.06
       165        11.2595        8153.00        7846.63          90.29
       166        11.2763        8183.00        7843.65          90.46
       167        11.2930        8206.00        7840.66          90.59
       168        11.3097        8141.00        7837.67          90.23
       169        11.3264        8079.00        7834.68          89.88
       170        11.3431        8129.00        7831.68          90.16
       171        11.3598        7916.00        7828.67          88.97
       172        11.3765        7993.00        7825.66          89.40
       173        11.3932        8188.00        7822.65          90.49
       174        11.4100        8080.00        7819.63          89.89
       175        11.4267        7818.00        7816.60          88.42
       176        11.4434        8149.00        7813.58          90.27
       177        11.4601        8176.00        7810.54          90.42
       178        11.4768        8234.00        7807.50          90.74
       179        11.4935        8043.00        7804.46          89.68
       180        11.5102        8226.00        7801.42          90.70
       181        11.5269        8150.00        7798.36          90.28
       182        11.5436        7986.00        7795.31          89.36
       183        11.5604        7992.00        7792.25          89.40
       184        11.5771        7945.00        7789.18          89.13
       185        11.5938        8122.00        7786.11          90.12
       186        11.6105        7953.00        7783.04          89.18
       187        11.6272        8074.00        7779.96          89.86
       188        11.6439        8110.00        7776.88          90.06
       189        11.6606        8381.00        7773.79          91.55
       190        11.6773        8032.00        7770.70          89.62
       191        11.6940        8128.00        7767.61          90.16
       192        11.7108        7999.00        7764.51          89.44
       193        11.7275        8053.00        7761.41          89.74
       194        11.7442        7984.00        7758.30          89.35
       195        11.7609        7962.00        7755.19          89.23
       196        11.7776        7963.00        7752.08          89.24
       197        11.7943        7930.00        7748.96          89.05
       198        11.8110        8175.00        7745.83          90.42
       199        11.8277        8101.00        7742.71          90.01
       200        11.8444        8004.00        7739.58          89.47
       201        11.8612        7885.00        7736.45          88.80
       202        11.8779        8008.00        7733.31          89.49
       203        11.8946        8100.00        7730.17          90.00
       204        11.9113        7991.00        7727.03          89.39
       205        11.9280        7992.00        7723.88          89.40
       206        11.9447        8003.00        7720.73          89.46
       207        11.9614        7816.00        7717.57          88.41
       208        11.9781        8075.00        7714.41          89.86
       209        11.9948        7982.00        7711.25          89.34
       210        12.0116        7985.00        7708.09          89.36
       211        12.0283        8089.00        7704.92          89.94
       212        12.0450        7950.00        7701.75          89.16
       213        12.0617        7932.00        7698.58          89.06
       214        12.0784        7872.00        7695.40          88.72
       215        12.0951        7800.00        7692.22          88.32
       216        12.1118        7862.00        7689.03          88.67
       217        12.1285        8018.00        7685.85          89.54
       218        12.1452        8060.00        7682.66          89.78
       219        12.1620        8058.00        7679.47          89.77
       220        12.1787        7827.00        7676.27          88.47
       221        12.1954        8036.00        7673.07          89.64
       222        12.2121        8056.00        7669.87          89.76
       223        12.2288        7933.00        7666.67          89.07
       224        12.2455        7886.00        7663.46          88.80
       225        12.2622        7962.00        7660.25          89.23
       226        12.2789        7778.00        7657.04          88.19
       227        12.2956        7865.00        7653.82          88.68
       228        12.3124        8018.00        7650.60          89.54
       229        12.3291        7910.00        7647.38          88.94
       230        12.3458        7843.00        7644.16          88.56
       231        12.3625        8001.00        7640.93          89.45
       232        12.3792        7856.00        7637.71          88.63
       233        12.3959        7854.00        7634.48          88.62
       234        12.4126        7938.00        7631.24          89.10
       235        12.4293        7753.00        7628.01          88.05
       236        12.4460        8097.00        7624.77          89.98
       237        12.4628        7655.00        7621.53          87.49
       238        12.4795        7575.00        7618.29          87.03
       239        12.4962        7703.00        7615.04          87.77
       240        12.5129        7845.00        7611.80          88.57
       241        12.5296        7761.00        7608.55          88.10
       242        12.5463        7869.00        7605.30          88.71
       243        12.5630        7956.00        7602.04          89.20
       244        12.5797        7859.00        7598.79          88.65
       245        12.5965        7785.00        7595.53          88.23
       246        12.6132        7850.00        7592.27          88.60
       247        12.6299        7639.00        7589.01          87.40
       248        12.6466        7838.00        7585.75          88.53
       249        12.6633        7864.00        7582.48          88.68
       250        12.6800        7779.00        7579.22          88.20
       251        12.6967        7763.00        7575.95          88.11
       252        12.7134        7665.00        7572.68          87.55
       253        12.7301        7709.00        7569.40          87.80
       254        12.7469        7682.00        7566.13          87.65
       255        12.7636        7842.00        7562.85          88.56
       256        12.7803        7768.00        7559.58          88.14
       257        12.7970        7827.00        7556.30          88.47
       258        12.8137        7732.00        7553.02          87.93
       259        12.8304        7627.00        7549.74          87.33
       260        12.8471        7831.00        7546.45          88.49
       261        12.8638        7702.00        7543.17          87.76
       262        12.8805        7784.00        7539.88          88.23
       263        12.8973        7728.00        7536.59          87.91
       264        12.9140        7730.00        7533.30          87.92
       265        12.9307        7875.00        7530.01          88.74
       266        12.9474        7756.00        7526.72          88.07
       267        12.9641        7841.00        7523.43          88.55
       268        12.9808        7808.00        7520.13          88.36
       269        12.9975        7732.00        7516.83          87.93
       270        13.0142        7577.00        7513.54          87.05
       271        13.0309        7596.00        7510.24          87.15
       272        13.0477        7756.00        7506.94          88.07
       273        13.0644        7619.00        7503.64          87.29
       274        13.0811        7622.00        7500.33          87.30
       275        13.0978        7840.00        7497.03          88.54
       276        13.1145        7775.00        7493.73          88.18
       277        13.1312        7807.00        7490.42          88.36
       278        13.1479        7840.00        7487.12          88.54
       279        13.1646        7818.00        7483.81          88.42
       280        13.1813        7872.00        7480.50          88.72
       281        13.1981        7689.00        7477.19          87.69
       282        13.2148        7681.00        7473.88          87.64
       283        13.2315        7873.00        7470.57          88.73
       284        13.2482        7973.00        7467.26          89.29
       285        13.2649        7853.00        7463.95          88.62
       286        13.2816        7737.00        7460.63          87.96
       287        13.2983        7779.00        7457.32          88.20
       288        13.3150        7609.00        7454.01          87.23
       289        13.3317        7710.00        7450.69          87.81
       290        13.3485        7748.00        7447.38          88.02
       291        13.3652        7568.00        7444.06          86.99
       292        13.3819        7639.00        7440.75          87.40
       293        13.3986        7624.00        7437.43          87.32
       294        13.4153        7514.00        7434.11          86.68
       295        13.4320        7566.00        7430.79          86.98
       296        13.4487        7596.00        7427.47          87.15
       297        13.4654        7614.00        7424.15          87.26
       298        13.4821        7749.00        7420.83          88.03
       299        13.4989        7625.00        7417.51          87.32
       300        13.5156        7616.00        7414.19          87.27
       301        13.5323        7722.00        7410.87          87.87
       302        13.5490        7657.00        7407.55          87.50
       303        13.5657        7689.00        7404.23          87.69
       304        13.5824        7702.00        7400.91          87.76
       305        13.5991        7641.00        7397.59          87.41
       306        13.6158        7717.00        7394.27          87.85
       307        13.6325        7754.00        7390.95          88.06
       308        13.6493        7656.00        7387.62          87.50
       309        13.6660        7743.00        7384.30          87.99
       310        13.6827        7529.00        7380.98          86.77
       311        13.6994        7540.00        7377.66          86.83
       312        13.7161        7694.00        7374.34          87.72
       313        13.7328        7609.00        7371.01          87.23
       314        13.7495        7753.00        7367.69          88.05
       315        13.7662        7712.00        7364.37          87.82
       316        13.7830        7532.00        7361.05          86.79
       317        13.7997        7652.00        7357.72          87.48
       318        13.8164        7762.00        7354.40          88.10
       319        13.8331        7575.00        7351.08          87.03
       320        13.8498        7325.00        7347.76          85.59
       321        13.8665        7660.00        7344.44          87.52
       322        13.8832        7670.00        7341.12          87.58
       323        13.8999        7579.00        7337.80          87.06
       324        13.9166        7397.00        7334.48          86.01
       325        13.9334        7536.00        7331.16          86.81
       326        13.9501        7515.00        7327.84          86.69
       327        13.9668        7678.00        7324.52          87.62
       328        13.9835        7610.00        7321.20          87.24
       329        14.0002        7708.00        7317.88          87.80
       330        14.0169        7654.00        7314.57          87.49
       331        14.0336        7720.00        7311.25          87.86
       332        14.0503        7584.00        7307.93          87.09
       333        14.0670        7645.00        7304.61          87.44
       334        14.0838        7687.00        7301.30          87.68
       335        14.1005        7600.00        7297.98          87.18
       336        14.1172        7460.00        7294.67          86.37
       337        14.1339        7379.00        7291.35          85.90
       338        14.1506        7448.00        7288.04          86.30
       339        14.1673        7443.00        7284.73          86.27
       340        14.1840        7522.00        7281.41          86.73
       341        14.2007        7550.00        7278.10          86.89
       342        14.2175        7414.00        7274.79          86.10
       343        14.2342        7450.00        7271.48          86.31
       344        14.2509        7368.00        7268.17          85.84
       345        14.2676        7532.00        7264.87          86.79
       346        14.2843        7499.00        7261.56          86.60
       347        14.3010        7607.00        7258.25          87.22
       348        14.3177        7471.00        7254.94          86.43
       349        14.3344        7510.00        7251.64          86.66
       350        14.3511        7249.00        7248.34          85.14
       351        14.3678        7429.00        7245.03          86.19
       352        14.3846        7405.00        7241.73          86.05
       353        14.4013        7199.00        7238.43          84.85
       354        14.4180        7318.00        7235.13          85.55
       355        14.4347        7380.00        7231.83          85.91
       356        14.4514        7430.00        7228.53          86.20
       357        14.4681        7394.00        7225.24          85.99
       358        14.4848        7378.00        7221.94          85.90
       359        14.5015        7237.00        7218.65          85.07
       360        14.5182        7367.00        7215.35          85.83
       361        14.5350        7453.00        7212.06          86.33
       362        14.5517        7443.00        7208.77          86.27
       363        14.5684        7391.00        7205.48          85.97
       364        14.5851        7397.00        7202.19          86.01
       365        14.6018        7298.00        7198.90          85.43
       366        14.6185        7310.00        7195.62          85.50
       367        14.6352        7411.00        7192.33          86.09
       368        14.6519        7418.00        7189.05          86.13
       369        14.6686        7319.00        7185.76          85.55
       370        14.6854        7370.00        7182.48          85.85
       371        14.7021        7364.00        7179.20          85.81
       372        14.7188        7192.00        7175.92          84.81
       373        14.7355        7481.00        7172.65          86.49
       374        14.7522        7436.00        7169.37          86.23
       375        14.7689        7364.00        7166.10          85.81
       376        14.7856        7329.00        7162.83          85.61
       377        14.8023        7272.00        7159.55          85.28
       378        14.8190        7416.00        7156.29          86.12
       379        14.8358        7291.00        7153.02          85.39
       380        14.8525        7314.00        7149.75          85.52
       381        14.8692        7094.00        7146.48          84.23
       382        14.8859        7360.00        7143.22          85.79
       383        14.9026        7258.00        7139.96          85.19
       384        14.9193        7353.00        7136.70          85.75
       385        14.9360        7239.00        7133.44          85.08
       386        14.9527        7331.00        7130.18          85.62
       387        14.9695        7155.00        7126.93          84.59
       388        14.9862        7383.00        7123.67          85.92
       389        15.0029        7224.00        7120.42          84.99
       390        15.0196        7057.00        7117.17          84.01
       391        15.0363        7140.00        7113.93          84.50
       392        15.0530        7263.00        7110.68          85.22
       393        15.0697        7306.00        7107.44          85.48
       394        15.0864        7130.00        7104.19          84.44
       395        15.1031        7330.00        7100.95          85.62
       396        15.1199        7194.00        7097.71          84.82
       397        15.1366        7186.00        7094.47          84.77
       398        15.1533        7192.00        7091.24          84.81
       399        15.1700        7250.00        7088.00          85.15
       400        15.1867        7063.00        7084.77          84.04
       401        15.2034        7202.00        7081.54          84.86
       402        15.2201        7110.00        7078.32          84.32
       403        15.2368        7187.00        7075.09          84.78
       404        15.2535        7108.00        7071.87          84.31
       405        15.2703        7213.00        7068.64          84.93
       406        15.2870        7263.00        7065.42          85.22
       407        15.3037        7129.00        7062.24          84.43
       408        15.3204        7187.00        7059.03          84.78
       409        15.3371        7062.00        7055.83          84.04
       410        15.3538        7029.00        7052.62          83.84
       411        15.3705        7218.00        7049.41          84.96
       412        15.3872        7111.00        7046.21          84.33
       413        15.4039        7053.00        7043.00          83.98
       414        15.4207        7287.00        7039.80          85.36
       415        15.4374        7161.00        7036.60          84.62
       416        15.4541        7260.00        7033.41          85.21
       417        15.4708        7303.00        7030.21          85.46
       418        15.4875        7096.00        7027.02          84.24
       419        15.5042        7088.00        7023.83          84.19
       420        15.5209        7171.00        7020.64          84.68
       421        15.5376        7074.00        7017.45          84.11
       422        15.5543        7000.00        7014.27          83.67
       423        15.5711        6974.00        7011.09          83.51
       424        15.5878        7090.00        7007.91          84.20
       425        15.6045        7145.00        7004.74          84.53
       426        15.6212        7030.00        7001.56          83.85
       427        15.6379        7047.00        6998.39          83.95
       428        15.6546        7062.00        6995.22          84.04
       429        15.6713        7097.00        6992.06          84.24
       430        15.6880        7045.00        6988.89          83.93
       431        15.7048        6976.00        6985.73          83.52
       432        15.7215        6948.00        6982.57          83.35
       433        15.7382        6933.00        6979.42          83.26
       434        15.7549        7212.00        6976.26          84.92
       435        15.7716        6974.00        6973.11          83.51
       436        15.7883        6967.00        6969.97          83.47
       437        15.8050        7070.00        6966.82          84.08
       438        15.8217        7064.00        6963.68          84.05
       439        15.8384        7136.00        6960.54          84.47
       440        15.8551        7110.00        6957.40          84.32
       441        15.8719        6916.00        6954.27          83.16
       442        15.8886        6928.00        6951.14          83.23
       443        15.9053        7035.00        6948.01          83.87
       444        15.9220        7079.00        6944.88          84.14
       445        15.9387        7169.00        6941.76          84.67
       446        15.9554        6963.00        6938.64          83.44
       447        15.9721        7009.00        6935.52          83.72
       448        15.9888        7131.00        6933.08          84.45
       449        16.0055        6948.00        6930.00          83.35
       450        16.0223        7031.00        6927.25          83.85
       451        16.0390        7038.00        6924.19          83.89
       452        16.0557        6803.00        6925.46          82.48
       453        16.0724        6827.00        6922.61          82.63
       454        16.0891        6909.00        6921.86          83.12
       455        16.1058        6999.00        6919.14          83.66
       456        16.1225        7008.00        6916.45          83.71
       457        16.1392        6894.00        6913.79          83.03
       458        16.1560        6925.00        6911.17          83.22
       459        16.1727        6892.00        6908.58          83.02
       460        16.1894        6999.00        6906.04          83.66
       461        16.2061        6937.00        6903.54          83.29
       462        16.2228        6893.00        6901.10          83.02
       463        16.2395        6813.00        6898.71          82.54
       464        16.2562        6891.00        6896.38          83.01
       465        16.2729        6948.00        6894.13          83.35
       466        16.2896        6808.00        6891.95          82.51
       467        16.3064        6836.00        6889.86          82.68
       468        16.3231        6868.00        6887.87          82.87
       469        16.3398        6831.00        6885.99          82.65
       470        16.3565        6830.00        6884.24          82.64
       471        16.3732        6945.00        6882.63          83.34
       472        16.3899        6866.00        6881.19          82.86
       473        16.4066        6942.00        6879.95          83.32
       474        16.4233        6943.00        6878.92          83.32
       475        16.4400        6824.00        6878.16          82.61
       476        16.4568        6898.00        6877.71          83.05
       477        16.4735        7032.00        6877.62          83.86
       478        16.4902        7000.00        6877.96          83.67
       479        16.5069        7093.00        6878.84          84.22
       480        16.5236        6974.00        6880.35          83.51
       481        16.5403        7118.00        6882.64          84.37
       482        16.5570        7221.00        6885.93          84.98
       483        16.5737        7081.00        6890.45          84.15
       484        16.5904        7099.00        6896.57          84.26
       485        16.6072        7232.00        6904.84          85.04
       486        16.6239        7083.00        6916.17          84.16
       487        16.6406        7212.00        6932.29          84.92
       488        16.6573        7372.00        6956.52          85.86
       489        16.6740        7324.00        6994.86          85.58
       490        16.6907        7459.00        7057.02          86.37
       491        16.7074        7420.00        7156.37          86.14
       492        16.7241        7636.00        7309.92          87.38
       493        16.7408        7548.00        7536.76          86.88
       494        16.7576        7881.00        7852.41          88.78
       495        16.7743        8065.00        8264.00          89.81
       496        16.7910        8296.00        8781.58          91.08
       497        16.8077        8555.00        9388.57          92.49
       498        16.8244        8840.00        9960.29          94.02
       499        16.8411        9112.00       10266.40          95.46
       500        16.8578        8964.00       10171.40          94.68
       501        16.8745        8680.00        9762.24          93.17
       502        16.8912        8285.00        9160.28          91.02
       503        16.9080        7976.00        8503.25          89.31
       504        16.9247        7573.00        7934.94          87.02
       505        16.9414        7318.00        7517.63          85.55
       506        16.9581        7101.00        7244.47          84.27
       507        16.9748        7121.00        7079.09          84.39
       508        16.9915        6662.00        6982.48          81.62
       509        17.0082        6803.00        6924.66          82.48
       510        17.0249        6863.00        6887.17          82.84
       511        17.0416        6904.00        6860.33          83.09
       512        17.0584        6787.00        6839.55          82.38
       513        17.0751        6746.00        6822.65          82.13
       514        17.0918        6806.00        6808.50          82.50
       515        17.1085        6743.00        6796.40          82.12
       516        17.1252        6622.00        6785.89          81.38
       517        17.1419        6616.00        6776.60          81.34
       518        17.1586        6735.00        6768.31          82.07
       519        17.1753        6768.00        6760.81          82.27
       520        17.1920        6666.00        6753.95          81.65
       521        17.2088        6885.00        6747.62          82.98
       522        17.2255        6642.00        6741.74          81.50
       523        17.2422        6622.00        6736.23          81.38
       524        17.2589        6753.00        6731.03          82.18
       525        17.2756        6601.00        6726.10          81.25
       526        17.2923        6743.00        6721.40          82.12
       527        17.3090        6625.00        6716.89          81.39
       528        17.3257        6657.00        6712.56          81.59
       529        17.3425        6597.00        6708.36          81.22
       530        17.3592        6521.00        6704.31          80.75
       531        17.3759        6622.00        6700.36          81.38
       532        17.3926        6638.00        6696.52          81.47
       533        17.4093        6603.00        6692.93          81.26
       534        17.4260        6623.00        6689.27          81.38
       535        17.4427        6675.00        6685.75          81.70
       536        17.4594        6665.00        6682.23          81.64
       537        17.4761        6625.00        6678.76          81.39
       538        17.4929        6725.00        6675.35          82.01
       539        17.5096        6384.00        6671.98          79.90
       540        17.5263        6759.00        6668.67          82.21
       541        17.5430        6625.00        6665.39          81.39
       542        17.5597        6546.00        6662.15          80.91
       543        17.5764        6705.00        6658.32          81.88
       544        17.5931        6570.00        6655.17          81.06
       545        17.6098        6464.00        6651.73          80.40
       546        17.6265        6579.00        6648.65          81.11
       547        17.6433        6547.00        6641.51          80.91
       548        17.6600        6658.00        6638.64          81.60
       549        17.6767        6605.00        6633.72          81.27
       550        17.6934        6530.00        6630.96          80.81
       551        17.7101        6392.00        6628.22          79.95
       552        17.7268        6601.00        6625.48          81.25
       553        17.7435        6435.00        6622.74          80.22
       554        17.7602        6616.00        6620.02          81.34
       555        17.7769        6565.00        6617.31          81.02
       556        17.7937        6515.00        6614.61          80.72
       557        17.8104        6424.00        6611.93          80.15
       558        17.8271        6457.00        6609.26          80.36
       559        17.8438        6590.00        6606.61          81.18
       560        17.8605        6659.00        6603.98          81.60
       561        17.8772        6403.00        6601.36          80.02
       562        17.8939        6445.00        6598.78          80.28
       563        17.9106        6365.00        6596.23          79.78
       564        17.9273        6452.00        6593.72          80.32
       565        17.9441        6559.00        6591.26          80.99
       566        17.9608        6512.00        6588.87          80.70
       567        17.9775        6554.00        6586.55          80.96
       568        17.9942        6541.00        6584.34          80.88
       569        18.0109        6547.00        6582.28          80.91
       570        18.0276        6467.00        6580.46          80.42
       571        18.0443        6485.00        6579.05          80.53
       572        18.0610        6515.00        6578.48          80.72
       573        18.0777        6494.00        6579.56          80.59
       574        18.0945        6555.00        6583.69          80.96
       575        18.1112        6607.00        6592.62          81.28
       576        18.1279        6558.00        6607.72          80.98
       577        18.1446        6482.00        6628.54          80.51
       578        18.1613        6440.00        6651.10          80.25
       579        18.1780        6623.00        6666.67          81.38
       580        18.1947        6610.00        6667.54          81.30
       581        18.2114        6532.00        6655.46          80.82
       582        18.2281        6344.00        6635.16          79.65
       583        18.2449        6603.00        6610.35          81.26
       584        18.2616        6549.00        6586.35          80.93
       585        18.2783        6391.00        6566.94          79.94
       586        18.2950        6261.00        6552.80          79.13
       587        18.3117        6512.00        6543.01          80.70
       588        18.3284        6380.00        6536.18          79.87
       589        18.3451        6386.00        6531.16          79.91
       590        18.3618        6569.00        6527.08          81.05
       591        18.3786        6476.00        6523.50          80.47
       592        18.3953        6329.00        6520.19          79.56
       593        18.4120        6416.00        6517.04          80.10
       594        18.4287        6475.00        6514.01          80.47
       595        18.4454        6286.00        6511.06          79.28
       596        18.4621        6477.00        6508.18          80.48
       597        18.4788        6194.00        6505.34          78.70
       598        18.4955        6263.00        6502.55          79.14
       599        18.5122        6419.00        6499.79          80.12
       600        18.5290        6498.00        6497.05          80.61
       601        18.5457        6240.00        6494.34          78.99
       602        18.5624        6343.00        6491.65          79.64
       603        18.5791        6446.00        6488.98          80.29
       604        18.5958        6561.00        6486.32          81.00
       605        18.6125        6225.00        6483.67          78.90
       606        18.6292        6523.00        6481.04          80.77
       607        18.6459        6359.00        6478.42          79.74
       608        18.6626        6457.00        6475.80          80.36
       609        18.6794        6378.00        6473.20          79.86
       610        18.6961        6362.00        6470.61          79.76
       611        18.7128        6320.00        6468.02          79.50
       612        18.7295        6343.00        6465.44          79.64
       613        18.7462        6325.00        6462.87          79.53
       614        18.7629        6180.00        6460.30          78.61
       615        18.7796        6392.00        6457.75          79.95
       616        18.7963        6362.00        6455.19          79.76
       617        18.8130        6498.00        6452.65          80.61
       618        18.8298        6307.00        6450.10          79.42
       619        18.8465        6264.00        6447.57          79.15
       620        18.8632        6286.00        6445.04          79.28
       621        18.8799        6336.00        6442.51          79.60
       622        18.8966        6284.00        6439.99          79.27
       623        18.9133        6293.00        6437.48          79.33
       624        18.9300        6320.00        6434.97          79.50
       625        18.9467        6385.00        6432.47          79.91
       626        18.9635        6304.00        6429.97          79.40
       627        18.9802        6307.00        6427.32          79.42
       628        18.9969        6360.00        6424.83          79.75
       629        19.0136        6214.00        6422.28          78.83
       630        19.0303        6228.00        6419.80          78.92
       631        19.0470        6265.00        6417.33          79.15
       632        19.0637        6202.00        6414.87          78.75
       633        19.0804        6298.00        6412.41          79.36
       634        19.0971        6182.00        6409.96          78.63
       635        19.1138        6228.00        6407.50          78.92
       636        19.1306        6279.00        6405.06          79.24
       637        19.1473        6167.00        6402.61          78.53
       638        19.1640        6235.00        6400.17          78.96
       639        19.1807        6306.00        6397.74          79.41
       640        19.1974        6260.00        6395.31          79.12
       641        19.2141        6135.00        6392.88          78.33
       642        19.2308        6345.00        6390.46          79.66
       643        19.2475        6257.00        6388.04          79.10
       644        19.2642        6210.00        6385.63          78.80
       645        19.2810        6316.00        6384.81          79.47
       646        19.2977        6460.00        6382.44          80.37
       647        19.3144        6274.00        6380.08          79.21
       648        19.3311        6217.00        6377.73          78.85
       649        19.3478        6161.00        6376.18          78.49
       650        19.3645        6174.00        6373.86          78.57
       651        19.3812        6287.00        6371.55          79.29
       652        19.3979        6305.00        6369.24          79.40
       653        19.4146        6072.00        6366.94          77.92
       654        19.4314        6290.00        6364.65          79.31
       655        19.4481        6282.00        6362.36          79.26
       656        19.4648        6096.00        6360.08          78.08
       657        19.4815        6117.00        6357.81          78.21
       658        19.4982        6269.00        6355.55          79.18
       659        19.5149        6062.00        6353.30          77.86
       660        19.5316        6250.00        6351.05          79.06
       661        19.5483        6206.00        6348.82          78.78
       662        19.5650        6300.00        6346.59          79.37
       663        19.5818        6269.00        6344.37          79.18
       664        19.5985        6097.00        6342.16          78.08
       665        19.6152        6102.00        6339.97          78.12
       666        19.6319        6293.00        6337.78          79.33
       667        19.6486        6198.00        6335.61          78.73
       668        19.6653        6218.00        6333.44          78.85
       669        19.6820        6061.00        6331.29          77.85
       670        19.6987        6198.00        6329.15          78.73
       671        19.7155        6266.00        6327.03          79.16
       672        19.7322        6246.00        6324.92          79.03
       673        19.7489        6145.00        6322.82          78.39
       674        19.7656        6171.00        6320.74          78.56
       675        19.7823        6264.00        6318.67          79.15
       676        19.7990        6186.00        6316.63          78.65
       677        19.8157        6271.00        6314.60          79.19
       678        19.8324        6197.00        6312.59          78.72
       679        19.8491        6221.00        6310.60          78.87
       680        19.8659        6117.00        6308.64          78.21
       681        19.8826        6034.00        6306.70          77.68
       682        19.8993        6124.00        6304.78          78.26
       683        19.9160        6050.00        6302.89          77.78
       684        19.9327        6091.00        6301.04          78.04
       685        19.9494        6154.00        6299.21          78.45
       686        19.9661        6249.00        6297.43          79.05
       687        19.9828        6189.00        6295.67          78.67
       688        19.9995        6141.00        6293.97          78.36
       689        20.0163        6241.00        6292.31          79.00
       690        20.0330        6266.00        6290.70          79.16
       691        20.0497        6185.00        6289.14          78.64
       692        20.0664        6273.00        6287.65          79.20
       693        20.0831        6201.00        6286.23          78.75
       694        20.0998        6185.00        6284.89          78.64
       695        20.1165        6077.00        6283.63          77.96
       696        20.1332        6131.00        6282.47          78.30
       697        20.1499        6154.00        6281.42          78.45
       698        20.1667        6155.00        6280.49          78.45
       699        20.1834        6161.00        6279.71          78.49
       700        20.2001        6106.00        6279.09          78.14
       701        20.2168        6123.00        6278.66          78.25
       702        20.2335        6269.00        6278.45          79.18
       703        20.2502        6084.00        6278.49          78.00
       704        20.2669        6141.00        6278.82          78.36
       705        20.2836        6232.00        6279.51          78.94
       706        20.3003        6269.00        6280.61          79.18
       707        20.3171        6157.00        6282.21          78.47
       708        20.3338        6230.00        6284.43          78.93
       709        20.3505        5938.00        6287.40          77.06
       710        20.3672        6171.00        6292.16          78.56
       711        20.3839        6216.00        6297.39          78.84
       712        20.4006        6268.00        6304.30          79.17
       713        20.4173        6085.00        6313.88          78.01
       714        20.4340        6150.00        6326.18          78.42
       715        20.4507        6298.00        6342.73          79.36
       716        20.4675        6007.00        6364.99          77.50
       717        20.4842        6299.00        6394.71          79.37
       718        20.5009        6315.00        6433.86          79.47
       719        20.5176        6397.00        6484.33          79.98
       720        20.5343        6441.00        6547.56          80.26
       721        20.5510        6467.00        6623.67          80.42
       722        20.5677        6612.00        6709.90          81.31
       723        20.5844        6577.00        6798.44          81.10
       724        20.6011        6787.00        6875.21          82.38
       725        20.6179        6951.00        6923.65          83.37
       726        20.6346        7016.00        6933.56          83.76
       727        20.6513        6977.00        6905.95          83.53
       728        20.6680        6766.00        6848.54          82.26
       729        20.6847        6835.00        6770.92          82.67
       730        20.7014        6523.00        6684.02          80.77
       731        20.7181        6465.00        6598.39          80.41
       732        20.7348        6322.00        6521.34          79.51
       733        20.7515        6336.00        6456.12          79.60
       734        20.7683        6201.00        6403.02          78.75
       735        20.7850        6212.00        6360.91          78.82
       736        20.8017        6310.00        6327.99          79.44
       737        20.8184        6223.00        6302.42          78.89
       738        20.8351        6140.00        6282.56          78.36
       739        20.8518        6108.00        6267.02          78.15
       740        20.8685        6097.00        6254.74          78.08
       741        20.8852        5967.00        6244.94          77.25
       742        20.9020        6027.00        6237.09          77.63
       743        20.9187        6302.00        6230.84          79.39
       744        20.9354        6161.00        6230.88          78.49
       745        20.9521        6262.00        6227.67          79.13
       746        20.9688        6145.00        6226.01          78.39
       747        20.9855        6013.00        6228.81          77.54
       748        21.0022        6239.00        6232.81          78.99
       749        21.0189        6167.00        6243.36          78.53
       750        21.0356        6180.00        6266.11          78.61
       751        21.0524        6174.00        6309.13          78.57
       752        21.0691        6287.00        6380.07          79.29
       753        21.0858        6261.00        6480.31          79.13
       754        21.1025        6394.00        6596.66          79.96
       755        21.1192        6235.00        6692.56          78.96
       756        21.1359        6305.00        6724.14          79.40
       757        21.1526        6153.00        6692.38          78.44
       758        21.1693        6172.00        6627.39          78.56
       759        21.1860        6208.00        6540.27          78.79
       760        21.2028        6113.00        6441.54          78.19
       761        21.2195        6024.00        6352.43          77.61
       762        21.2362        5906.00        6284.90          76.85
       763        21.2529        6001.00        6239.45          77.47
       764        21.2696        6041.00        6211.39          77.72
       765        21.2863        5926.00        6194.93          76.98
       766        21.3030        6044.00        6185.29          77.74
       767        21.3197        6097.00        6179.38          78.08
       768        21.3364        6165.00        6175.59          78.52
       769        21.3532        6187.00        6173.18          78.66
       770        21.3699        5981.00        6171.86          77.34
       771        21.3866        5977.00        6171.51          77.31
       772        21.4033        6186.00        6172.13          78.65
       773        21.4200        6099.00        6173.77          78.10
       774        21.4367        6024.00        6176.56          77.61
       775        21.4534        6007.00        6180.70          77.50
       776        21.4701        6010.00        6186.46          77.52
       777        21.4868        6137.00        6194.27          78.34
       778        21.5036        6254.00        6204.74          79.08
       779        21.5203        6218.00        6218.78          78.85
       780        21.5370        6115.00        6238.01          78.20
       781        21.5537        6348.00        6265.79          79.67
       782        21.5704        6328.00        6309.62          79.55
       783        21.5871        6454.00        6386.11          80.34
       784        21.6038        6511.00        6526.35          80.69
       785        21.6205        6709.00        6776.80          81.91
       786        21.6372        7024.00        7185.22          83.81
       787        21.6540        7069.00        7768.32          84.08
       788        21.6707        7453.00        8464.52          86.33
       789        21.6874        8120.00        9078.09          90.11
       790        21.7041        8645.00        9335.03          92.98
       791        21.7208        8952.00        9197.90          94.61
       792        21.7375        8235.00        8854.20          90.75
       793        21.7542        7514.00        8386.37          86.68
       794        21.7709        7483.00        7828.40          86.50
       795        21.7876        6981.00        7296.53          83.55
       796        21.8044        6474.00        6879.02          80.46
       797        21.8211        6269.00        6591.13          79.18
       798        21.8378        6093.00        6410.90          78.06
       799        21.8545        6092.00        6304.66          78.05
       800        21.8712        6054.00        6242.32          77.81
       801        21.8879        5885.00        6203.46          76.71
       802        21.9046        5971.00        6175.94          77.27
       803        21.9213        6001.00        6155.92          77.47
       804        21.9380        6135.00        6140.04          78.33
       805        21.9548        6139.00        6125.03          78.35
       806        21.9715        6145.00        6114.19          78.39
       807        21.9882        5987.00        6104.96          77.38
       808        22.0049        6034.00        6096.19          77.68
       809        22.0216        6023.00        6089.22          77.61
       810        22.0383        5929.00        6083.05          77.00
       811        22.0550        6044.00        6077.53          77.74
       812        22.0717        5794.00        6072.55          76.12
       813        22.0885        5911.00        6068.00          76.88
       814        22.1052        6034.00        6063.83          77.68
       815        22.1219        6093.00        6059.98          78.06
       816        22.1386        5975.00        6056.41          77.30
       817        22.1553        5990.00        6053.08          77.40
       818        22.1720        5939.00        6049.97          77.06
       819        22.1887        5878.00        6047.07          76.67
       820        22.2054        5766.00        6044.39          75.93
       821        22.2221        6082.00        6041.98          77.99
       822        22.2389        5932.00        6039.98          77.02
       823        22.2556        5932.00        6038.65          77.02
       824        22.2723        6014.00        6038.36          77.55
       825        22.2890        5900.00        6039.47          76.81
       826        22.3057        6070.00        6042.02          77.91
       827        22.3224        6004.00        6045.32          77.49
       828        22.3391        5931.00        6047.55          77.01
       829        22.3558        5930.00        6046.67          77.01
       830        22.3725        5833.00        6042.95          76.37
       831        22.3893        5851.00        6037.98          76.49
       832        22.4060        5897.00        6032.17          76.79
       833        22.4227        5737.00        6025.75          75.74
       834        22.4394        6013.00        6019.64          77.54
       835        22.4561        5857.00        6014.49          76.53
       836        22.4728        5825.00        6005.69          76.32
       837        22.4895        5918.00        6002.61          76.93
       838        22.5062        5965.00        6000.10          77.23
       839        22.5229        6068.00        5995.59          77.90
       840        22.5397        6003.00        5993.70          77.48
       841        22.5564        6058.00        5991.90          77.83
       842        22.5731        5992.00        5990.16          77.41
       843        22.5898        6079.00        5988.46          77.97
       844        22.6065        5986.00        5986.77          77.37
       845        22.6232        5900.00        5985.11          76.81
       846        22.6399        6014.00        5983.51          77.55
       847        22.6566        6099.00        5981.88          78.10
       848        22.6733        5921.00        5980.26          76.95
       849        22.6901        5944.00        5978.66          77.10
       850        22.7068        5867.00        5977.08          76.60
       851        22.7235        5861.00        5975.49          76.56
       852        22.7402        5950.00        5973.91          77.14
       853        22.7569        6064.00        5972.34          77.87
       854        22.7736        5909.00        5970.77          76.87
       855        22.7903        6085.00        5969.21          78.01
       856        22.8070        6115.00        5967.65          78.20
       857        22.8237        5892.00        5966.10          76.76
       858        22.8405        5981.00        5964.56          77.34
       859        22.8572        6013.00        5963.02          77.54
       860        22.8739        5809.00        5961.48          76.22
       861        22.8906        5921.00        5959.95          76.95
       862        22.9073        5706.00        5958.43          75.54
       863        22.9240        5896.00        5956.91          76.79
       864        22.9407        5700.00        5955.40          75.50
       865        22.9574        5741.00        5953.89          75.77
       866        22.9741        5893.00        5952.39          76.77
       867        22.9909        5857.00        5950.90          76.53
       868        23.0076        5831.00        5949.40          76.36
       869        23.0243        5828.00        5947.92          76.34
       870        23.0410        5775.00        5946.44          75.99
       871        23.0577        5734.00        5944.97          75.72
       872        23.0744        5751.00        5943.51          75.84
       873        23.0911        5787.00        5942.05          76.07
       874        23.1078        5780.00        5940.61          76.03
       875        23.1245        5905.00        5939.13          76.84
       876        23.1413        5836.00        5937.71          76.39
       877        23.1580        5789.00        5936.30          76.09
       878        23.1747        5845.00        5934.89          76.45
       879        23.1914        5710.00        5933.52          75.56
       880        23.2081        5711.00        5932.17          75.57
       881        23.2248        5893.00        5930.85          76.77
       882        23.2415        5904.00        5929.59          76.84
       883        23.2582        5694.00        5928.40          75.46
       884        23.2750        5688.00        5927.35          75.42
       885        23.2917        5768.00        5926.59          75.95
       886        23.3084        5799.00        5926.38          76.15
       887        23.3251        5914.00        5927.11          76.90
       888        23.3418        5773.00        5929.15          75.98
       889        23.3585        5807.00        5932.55          76.20
       890        23.3752        5896.00        5936.68          76.79
       891        23.3919        5711.00        5939.75          75.57
       892        23.4086        5906.00        5939.66          76.85
       893        23.4254        5760.00        5936.71          75.89
       894        23.4421        5751.00        5932.63          75.84
       895        23.4588        5789.00        5927.87          76.09
       896        23.4755        5696.00        5922.38          75.47
       897        23.4922        5738.00        5916.95          75.75
       898        23.5089        5851.00        5912.31          76.49
       899        23.5256        5659.00        5908.65          75.23
       900        23.5423        5864.00        5905.84          76.58
       901        23.5590        5785.00        5903.61          76.06
       902        23.5758        5908.00        5901.75          76.86
       903        23.5925        5850.00        5900.09          76.49
       904        23.6092        5875.00        5898.52          76.65
       905        23.6259        5793.00        5897.02          76.11
       906        23.6426        5753.00        5895.55          75.85
       907        23.6593        5807.00        5894.12          76.20
       908        23.6760        5719.00        5892.70          75.62
       909        23.6927        5638.00        5891.31          75.09
       910        23.7094        5592.00        5889.94          74.78
       911        23.7262        5675.00        5888.58          75.33
       912        23.7429        5788.00        5887.25          76.08
       913        23.7596        5712.00        5885.94          75.58
       914        23.7763        5754.00        5884.65          75.86
       915        23.7930        5720.00        5883.39          75.63
       916        23.8097        5916.00        5882.14          76.92
       917        23.8264        5620.00        5880.90          74.97
       918        23.8431        5707.00        5879.65          75.54
       919        23.8598        5867.00        5878.35          76.60
       920        23.8766        5746.00        5877.01          75.80
       921        23.8933        5653.00        5875.65          75.19
       922        23.9100        5721.00        5874.27          75.64
       923        23.9267        5582.00        5872.87          74.71
       924        23.9434        5686.00        5871.47          75.41
       925        23.9601        5662.00        5870.09          75.25
       926        23.9768        5775.00        5868.72          75.99
       927        23.9935        5569.00        5867.37          74.63
       928        24.0102        5605.00        5866.03          74.87
       929        24.0270        5782.00        5864.71          76.04
       930        24.0437        5610.00        5863.41          74.90
       931        24.0604        5688.00        5862.11          75.42
       932        24.0771        5540.00        5860.82          74.43
       933        24.0938        5708.00        5859.54          75.55
       934        24.1105        5561.00        5858.26          74.57
       935        24.1272        5822.00        5856.99          76.30
       936        24.1439        5723.00        5855.73          75.65
       937        24.1606        5638.00        5854.43          75.09
       938        24.1774        5691.00        5853.18          75.44
       939        24.1941        5760.00        5851.92          75.89
       940        24.2108        5660.00        5850.68          75.23
       941        24.2275        5688.00        5849.42          75.42
       942        24.2442        5657.00        5848.18          75.21
       943        24.2609        5656.00        5846.95          75.21
       944        24.2776        5629.00        5845.71          75.03
       945        24.2943        5674.00        5844.49          75.33
       946        24.3110        5656.00        5843.26          75.21
       947        24.3278        5754.00        5842.04          75.86
       948        24.3445        5549.00        5840.83          74.49
       949        24.3612        5574.00        5839.62          74.66
       950        24.3779        5658.00        5838.41          75.22
       951        24.3946        5727.00        5837.20          75.68
       952        24.4113        5951.00        5836.00          77.14
       953        24.4280        5733.00        5834.80          75.72
       954        24.4447        5554.00        5833.60          74.53
       955        24.4615        5631.00        5832.41          75.04
       956        24.4782        5755.00        5831.22          75.86
       957        24.4949        5585.00        5830.04          74.73
       958        24.5116        5689.00        5828.85          75.43
       959        24.5283        5637.00        5827.68          75.08
       960        24.5450        5622.00        5826.50          74.98
       961        24.5617        5611.00        5825.33          74.91
       962        24.5784        5794.00        5824.16          76.12
       963        24.5951        5724.00        5822.99          75.66
       964        24.6119        5653.00        5821.83          75.19
       965        24.6286        5651.00        5820.67          75.17
       966        24.6453        5605.00        5819.52          74.87
       967        24.6620        5703.00        5818.36          75.52
       968        24.6787        5718.00        5817.22          75.62
       969        24.6954        5655.00        5816.07          75.20
       970        24.7121        5570.00        5814.93          74.63
       971        24.7288        5740.00        5813.79          75.76
       972        24.7455        5686.00        5812.65          75.41
       973        24.7623        5663.00        5811.52          75.25
       974        24.7790        5710.00        5810.39          75.56
       975        24.7957        5704.00        5809.26          75.52
       976        24.8124        5625.00        5808.14          75.00
       977        24.8291        5618.00        5807.02          74.95
       978        24.8458        5700.00        5805.90          75.50
       979        24.8625        5670.00        5804.79          75.30
       980        24.8792        5552.00        5803.68          74.51
       981        24.8960        5640.00        5802.57          75.10
       982        24.9127        5733.00        5801.47          75.72
       983        24.9294        5471.00        5800.37          73.97
       984        24.9461        5718.00        5799.27          75.62
       985        24.9628        5615.00        5798.18          74.93
       986        24.9795        5600.00        5797.09          74.83
       987        24.9962        5582.00        5796.00          74.71
       988        25.0129        5585.00        5794.91          74.73
       989        25.0296        5700.00        5793.83          75.50
       990        25.0463        5651.00        5792.75          75.17
       991        25.0631        5579.00        5791.68          74.69
       992        25.0798        5530.00        5790.60          74.36
       993        25.0965        5568.00        5789.53          74.62
       994        25.1132        5623.00        5788.47          74.99
       995        25.1299        5485.00        5787.41          74.06
       996        25.1466        5654.00        5786.35          75.19
       997        25.1633        5621.00        5785.29          74.97
       998        25.1800        5663.00        5784.24          75.25
       999        25.1967        5674.00        5783.19          75.33
      1000        25.2135        5697.00        5782.14          75.48
      1001        25.2302        5761.00        5781.09          75.90
      1002        25.2469        5611.00        5780.05          74.91
      1003        25.2636        5841.00        5779.01          76.43
      1004        25.2803        5731.00        5777.98          75.70
      1005        25.2970        5717.00        5776.95          75.61
      1006        25.3137        5767.00        5775.92          75.94
      1007        25.3304        5837.00        5774.89          76.40
      1008        25.3471        5985.00        5773.87          77.36
      1009        25.3639        6063.00        5772.85          77.87
      1010        25.3806        6094.00        5771.83          78.06
      1011        25.3973        5976.00        5770.82          77.30
      1012        25.4140        6043.00        5769.81          77.74
      1013        25.4307        5989.00        5768.80          77.39
      1014        25.4474        5865.00        5767.79          76.58
      1015        25.4641        5864.00        5766.79          76.58
      1016        25.4808        6062.00        5765.79          77.86
      1017        25.4975        6066.00        5764.80          77.88
      1018        25.5143        5889.00        5763.80          76.74
      1019        25.5310        5863.00        5837.01          76.57
      1020        25.5477        5906.00        5839.43          76.85
      1021        25.5644        5872.00        5842.08          76.63
      1022        25.5811        5784.00        5845.01          76.05
      1023        25.5978        5830.00        5884.96          76.35
      1024        25.6145        5824.00        5890.18          76.32
      1025        25.6312        5919.00        5895.88          76.93
      1026        25.6480        5898.00        5934.02          76.80
      1027        25.6647        5831.00        5942.27          76.36
      1028        25.6814        5746.00        5951.26          75.80
      1029        25.6981        5898.00        5961.06          76.80
      1030        25.7148        5879.00        5987.58          76.67
      1031        25.7315        5929.00        6000.05          77.00
      1032        25.7482        5759.00        6013.71          75.89
      1033        25.7649        6037.00        6028.71          77.70
      1034        25.7816        5739.00        6045.20          75.76
      1035        25.7984        5875.00        6063.40          76.65
      1036        25.8151        5874.00        6083.52          76.64
      1037        25.8318        5825.00        6105.84          76.32
      1038        25.8485        5935.00        6130.67          77.04
      1039        25.8652        5937.00        6158.40          77.05
      1040        25.8819        6031.00        6189.48          77.66
      1041        25.8986        5909.00        6224.46          76.87
      1042        25.9153        6059.00        6263.97          77.84
      1043        25.9320        6064.00        6308.84          77.87
      1044        25.9488        6175.00        6360.07          78.58
      1045        25.9655        6385.00        6418.90          79.91
      1046        25.9822        6677.00        6486.88          81.71
      1047        25.9989        6751.00        6566.00          82.16
      1048        26.0156        6911.00        6658.84          83.13
      1049        26.0323        7080.00        6768.80          84.14
      1050        26.0490        7751.00        6900.19          88.04
      1051        26.0657        7985.00        7059.06          89.36
      1052        26.0824        8484.00        7253.66          92.11
      1053        26.0992        9274.00        7495.86          96.30
      1054        26.1159        9888.00        7804.15          99.44
      1055        26.1326       10857.00        8211.99         104.20
      1056        26.1493       12109.00        8790.96         110.04
      1057        26.1660       13616.00        9703.29         116.69
      1058        26.1827       15489.00       11286.60         124.46
      1059        26.1994       18073.00       14126.10         134.44
      1060        26.2161       21287.00       18970.80         145.90
      1061        26.2328       26358.00       26369.50         162.35
      1062        26.2496       32905.00       36030.70         181.40
      1063        26.2663       43120.00       45953.00         207.65
      1064        26.2830       54730.00       52064.60         233.94
      1065        26.2997       62134.00       52029.90         249.27
      1066        26.3164       54866.00       49028.10         234.24
      1067        26.3331       42777.00       46557.30         206.83
      1068        26.3498       39976.00       44688.00         199.94
      1069        26.3665       41709.00       42341.30         204.23
      1070        26.3832       38878.00       39717.40         197.18
      1071        26.4000       34441.00       36432.20         185.58
      1072        26.4167       31565.00       31997.20         177.66
      1073        26.4334       27047.00       27602.60         164.46
      1074        26.4501       21319.00       24158.10         146.01
      1075        26.4668       18685.00       21121.70         136.69
      1076        26.4835       17220.00       17818.40         131.23
      1077        26.5002       14692.00       14590.90         121.21
      1078        26.5169       11029.00       11960.10         105.02
      1079        26.5336        8645.00       10074.90          92.98
      1080        26.5504        7547.00        8844.50          86.87
      1081        26.5671        7091.00        8083.02          84.21
      1082        26.5838        6812.00        7609.51          82.53
      1083        26.6005        6522.00        7294.89          80.76
      1084        26.6172        6450.00        7067.12          80.31
      1085        26.6339        6336.00        6890.76          79.60
      1086        26.6506        6424.00        6748.63          80.15
      1087        26.6673        6204.00        6631.42          78.77
      1088        26.6840        6054.00        6533.29          77.81
      1089        26.7008        5947.00        6450.11          77.12
      1090        26.7175        5932.00        6378.96          77.02
      1091        26.7342        5904.00        6317.53          76.84
      1092        26.7509        5817.00        6264.06          76.27
      1093        26.7676        5788.00        6217.19          76.08
      1094        26.7843        5773.00        6175.84          75.98
      1095        26.8010        5930.00        6139.15          77.01
      1096        26.8177        5812.00        6106.41          76.24
      1097        26.8345        5717.00        6077.07          75.61
      1098        26.8512        5549.00        6050.66          74.49
      1099        26.8679        5851.00        6026.78          76.49
      1100        26.8846        5867.00        6005.10          76.60
      1101        26.9013        5641.00        5985.35          75.11
      1102        26.9180        5795.00        5967.30          76.12
      1103        26.9347        5595.00        5950.75          74.80
      1104        26.9514        5770.00        5935.51          75.96
      1105        26.9681        5778.00        5921.47          76.01
      1106        26.9849        5776.00        5908.49          76.00
      1107        27.0016        5750.00        5896.46          75.83
      1108        27.0183        5731.00        5885.27          75.70
      1109        27.0350        5640.00        5800.78          75.10
      1110        27.0517        5637.00        5794.22          75.08
      1111        27.0684        5647.00        5788.10          75.15
      1112        27.0851        5786.00        5782.36          76.07
      1113        27.1018        5599.00        5740.40          74.83
      1114        27.1185        5653.00        5736.90          75.19
      1115        27.1353        5522.00        5733.59          74.31
      1116        27.1520        5588.00        5698.75          74.75
      1117        27.1687        5577.00        5697.13          74.68
      1118        27.1854        5561.00        5695.59          74.57
      1119        27.2021        5541.00        5694.10          74.44
      1120        27.2188        5695.00        5676.98          75.47
      1121        27.2355        5636.00        5676.26          75.07
      1122        27.2522        5524.00        5675.54          74.32
      1123        27.2689        5574.00        5674.82          74.66
      1124        27.2857        5602.00        5674.11          74.85
      1125        27.3024        5568.00        5673.40          74.62
      1126        27.3191        5706.00        5672.69          75.54
      1127        27.3358        5575.00        5671.98          74.67
      1128        27.3525        5683.00        5671.28          75.39
      1129        27.3692        5615.00        5670.57          74.93
      1130        27.3859        5621.00        5669.88          74.97
      1131        27.4026        5577.00        5669.18          74.68
      1132        27.4193        5613.00        5668.48          74.92
      1133        27.4361        5646.00        5667.79          75.14
      1134        27.4528        5750.00        5667.10          75.83
      1135        27.4695        5500.00        5666.41          74.16
      1136        27.4862        5541.00        5665.72          74.44
      1137        27.5029        5657.00        5665.04          75.21
      1138        27.5196        5585.00        5664.36          74.73
      1139        27.5363        5654.00        5663.68          75.19
      1140        27.5530        5547.00        5663.00          74.48
      1141        27.5697        5680.00        5662.32          75.37
      1142        27.5865        5578.00        5661.65          74.69
      1143        27.6032        5694.00        5660.98          75.46
      1144        27.6199        5687.00        5660.31          75.41
      1145        27.6366        5685.00        5659.64          75.40
      1146        27.6533        5705.00        5660.40          75.53
      1147        27.6700        5780.00        5659.81          76.03
      1148        27.6867        5753.00        5659.22          75.85
      1149        27.7034        5678.00        5658.63          75.35
      1150        27.7201        5797.00        5658.06          76.14
      1151        27.7369        5708.00        5658.22          75.55
      1152        27.7536        5728.00        5657.70          75.68
      1153        27.7703        5817.00        5657.19          76.27
      1154        27.7870        5686.00        5656.69          75.41
      1155        27.8037        5781.00        5656.21          76.03
      1156        27.8204        5815.00        5655.74          76.26
      1157        27.8371        5631.00        5655.29          75.04
      1158        27.8538        5539.00        5654.87          74.42
      1159        27.8706        5668.00        5654.46          75.29
      1160        27.8873        5639.00        5654.08          75.09
      1161        27.9040        5546.00        5653.72          74.47
      1162        27.9207        5615.00        5653.40          74.93
      1163        27.9374        5640.00        5653.10          75.10
      1164        27.9541        5511.00        5652.85          74.24
      1165        27.9708        5609.00        5652.65          74.89
      1166        27.9875        5635.00        5652.49          75.07
      1167        28.0042        5726.00        5652.40          75.67
      1168        28.0210        5510.00        5652.38          74.23
      1169        28.0377        5584.00        5652.44          74.73
      1170        28.0544        5551.00        5652.59          74.50
      1171        28.0711        5608.00        5652.86          74.89
      1172        28.0878        5602.00        5653.28          74.85
      1173        28.1045        5404.00        5653.86          73.51
      1174        28.1212        5681.00        5654.66          75.37
      1175        28.1379        5879.00        5655.72          76.67
      1176        28.1546        5718.00        5657.10          75.62
      1177        28.1714        5689.00        5658.91          75.43
      1178        28.1881        5620.00        5661.27          74.97
      1179        28.2048        5738.00        5664.35          75.75
      1180        28.2215        5735.00        5668.43          75.73
      1181        28.2382        5878.00        5673.95          76.67
      1182        28.2549        5747.00        5681.85          75.81
      1183        28.2716        6071.00        5694.18          77.92
      1184        28.2883        5931.00        5715.56          77.01
      1185        28.3050        6004.00        5778.86          77.49
      1186        28.3218        6012.00        5849.86          77.54
      1187        28.3385        6199.00        5964.73          78.73
      1188        28.3552        6268.00        6125.79          79.17
      1189        28.3719        6234.00        6321.34          78.96
      1190        28.3886        6425.00        6462.54          80.16
      1191        28.4053        6683.00        6486.53          81.75
      1192        28.4220        6616.00        6416.18          81.34
      1193        28.4387        6626.00        6332.20          81.40
      1194        28.4554        6560.00        6262.46          80.99
      1195        28.4722        6554.00        6178.98          80.96
      1196        28.4889        6365.00        6070.25          79.78
      1197        28.5056        6142.00        5958.00          78.37
      1198        28.5223        6127.00        5868.21          78.28
      1199        28.5390        5915.00        5806.60          76.91
      1200        28.5557        5975.00        5770.63          77.30
      1201        28.5724        6007.00        5749.99          77.50
      1202        28.5891        5909.00        5739.08          76.87
      1203        28.6058        5862.00        5733.36          76.56
      1204        28.6226        5955.00        5730.46          77.17
      1205        28.6393        5675.00        5729.29          75.33
      1206        28.6560        6034.00        5729.36          77.68
      1207        28.6727        5876.00        5730.43          76.66
      1208        28.6894        6069.00        5732.35          77.90
      1209        28.7061        5966.00        5735.04          77.24
      1210        28.7228        6001.00        5738.46          77.47
      1211        28.7395        6149.00        5742.60          78.42
      1212        28.7563        6451.00        5747.47          80.32
      1213        28.7730        6420.00        5753.09          80.12
      1214        28.7897        6575.00        5759.51          81.09
      1215        28.8064        6918.00        5766.81          83.17
      1216        28.8231        6873.00        5775.04          82.90
      1217        28.8398        6916.00        5784.33          83.16
      1218        28.8565        6854.00        5794.81          82.79
      1219        28.8732        6755.00        5806.62          82.19
      1220        28.8899        6737.00        5819.97          82.08
      1221        28.9067        6540.00        5835.09          80.87
      1222        28.9234        6489.00        5852.27          80.55
      1223        28.9401        6267.00        5871.86          79.16
      1224        28.9568        6376.00        5894.29          79.85
      1225        28.9735        6228.00        5920.11          78.92
      1226        28.9902        6311.00        5950.02          79.44
      1227        29.0069        6274.00        5984.89          79.21
      1228        29.0236        6417.00        6025.89          80.11
      1229        29.0403        6523.00        6074.53          80.77
      1230        29.0571        6539.00        6133.00          80.86
      1231        29.0738        6668.00        6204.53          81.66
      1232        29.0905        6980.00        6294.91          83.55
      1233        29.1072        6961.00        6415.05          83.43
      1234        29.1239        7090.00        6584.85          84.20
      1235        29.1406        7219.00        6833.81          84.96
      1236        29.1573        7413.00        7201.45          86.10
      1237        29.1740        7783.00        7712.46          88.22
      1238        29.1907        8202.00        8357.06          90.56
      1239        29.2075        8779.00        9054.64          93.70
      1240        29.2242        9556.00        9690.06          97.75
      1241        29.2409       10153.00       10318.00         100.76
      1242        29.2576       11517.00       11143.00         107.32
      1243        29.2743       12624.00       12251.50         112.36
      1244        29.2910       13402.00       13471.30         115.77
      1245        29.3077       14231.00       14394.70         119.29
      1246        29.3244       14630.00       14626.20         120.96
      1247        29.3412       14637.00       14194.10         120.98
      1248        29.3579       13822.00       13496.30         117.57
      1249        29.3746       13008.00       12801.30         114.05
      1250        29.3913       11947.00       12050.30         109.30
      1251        29.4080       10942.00       11117.40         104.60
      1252        29.4247        9787.00       10086.60          98.93
      1253        29.4414        9026.00        9134.87          95.01
      1254        29.4581        7957.00        8357.52          89.20
      1255        29.4748        7383.00        7761.82          85.92
      1256        29.4916        6833.00        7317.74          82.66
      1257        29.5083        6379.00        6989.30          79.87
      1258        29.5250        6363.00        6745.33          79.77
      1259        29.5417        6193.00        6561.62          78.70
      1260        29.5584        6015.00        6420.54          77.56
      1261        29.5751        5933.00        6309.85          77.03
      1262        29.5918        5826.00        6221.13          76.33
      1263        29.6085        5793.00        6148.93          76.11
      1264        29.6252        5953.00        6089.33          77.16
      1265        29.6419        5756.00        6039.63          75.87
      1266        29.6587        5682.00        5997.87          75.38
      1267        29.6754        5727.00        5962.60          75.68
      1268        29.6921        5674.00        5932.69          75.33
      1269        29.7088        5603.00        5907.33          74.85
      1270        29.7255        5755.00        5885.83          75.86
      1271        29.7422        5550.00        5867.76          74.50
      1272        29.7589        5560.00        5852.76          74.57
      1273        29.7756        5732.00        5840.59          75.71
      1274        29.7923        5763.00        5831.14          75.91
      1275        29.8091        5650.00        5824.40          75.17
      1276        29.8258        5681.00        5820.51          75.37
      1277        29.8425        5634.00        5819.74          75.06
      1278        29.8592        5716.00        5822.63          75.60
      1279        29.8759        5626.00        5830.08          75.01
      1280        29.8926        5808.00        5843.82          76.21
      1281        29.9093        5842.00        5867.63          76.43
      1282        29.9260        5893.00        5910.30          76.77
      1283        29.9427        6071.00        5990.79          77.92
      1284        29.9595        6216.00        6143.10          78.84
      1285        29.9762        6399.00        6409.92          79.99
      1286        29.9929        6552.00        6831.96          80.94
      1287        30.0096        7045.00        7390.33          83.93
      1288        30.0263        7555.00        7961.54          86.92
      1289        30.0430        8118.00        8281.22          90.10
      1290        30.0597        8208.00        8189.57          90.60
      1291        30.0764        8031.00        7890.61          89.62
      1292        30.0931        7519.00        7631.17          86.71
      1293        30.1099        7123.00        7439.07          84.40
      1294        30.1266        7282.00        7187.75          85.33
      1295        30.1433        7014.00        6835.14          83.75
      1296        30.1600        6610.00        6478.86          81.30
      1297        30.1767        6192.00        6193.55          78.69
      1298        30.1934        6024.00        5996.77          77.61
      1299        30.2101        5786.00        5874.89          76.07
      1300        30.2268        5832.00        5803.36          76.37
      1301        30.2436        5977.00        5760.47          77.31
      1302        30.2603        5784.00        5732.47          76.05
      1303        30.2770        5634.00        5712.27          75.06
      1304        30.2937        5672.00        5696.63          75.31
      1305        30.3104        5606.00        5684.02          74.87
      1306        30.3271        5666.00        5673.58          75.27
      1307        30.3438        5544.00        5641.31          74.46
      1308        30.3605        5647.00        5634.56          75.15
      1309        30.3772        5630.00        5628.78          75.03
      1310        30.3940        5494.00        5623.79          74.12
      1311        30.4107        5426.00        5619.44          73.66
      1312        30.4274        5667.00        5604.19          75.28
      1313        30.4441        5444.00        5601.13          73.78
      1314        30.4608        5527.00        5598.42          74.34
      1315        30.4775        5522.00        5595.98          74.31
      1316        30.4942        5421.00        5593.79          73.63
      1317        30.5109        5528.00        5591.81          74.35
      1318        30.5276        5615.00        5590.68          74.93
      1319        30.5444        5538.00        5589.05          74.42
      1320        30.5611        5591.00        5587.55          74.77
      1321        30.5778        5537.00        5586.17          74.41
      1322        30.5945        5522.00        5584.89          74.31
      1323        30.6112        5469.00        5584.05          73.95
      1324        30.6279        5592.00        5582.95          74.78
      1325        30.6446        5623.00        5582.21          74.99
      1326        30.6613        5572.00        5581.27          74.65
      1327        30.6780        5550.00        5580.39          74.50
      1328        30.6948        5514.00        5579.56          74.26
      1329        30.7115        5611.00        5578.92          74.91
      1330        30.7282        5688.00        5578.20          75.42
      1331        30.7449        5608.00        5577.52          74.89
      1332        30.7616        5729.00        5576.89          75.69
      1333        30.7783        5629.00        5576.30          75.03
      1334        30.7950        5723.00        5571.21          75.65
      1335        30.8117        5605.00        5570.89          74.87
      1336        30.8285        5692.00        5570.61          75.45
      1337        30.8452        5700.00        5570.36          75.50
      1338        30.8619        5557.00        5567.84          74.55
      1339        30.8786        5688.00        5567.76          75.42
      1340        30.8953        5730.00        5567.72          75.70
      1341        30.9120        5810.00        5567.73          76.22
      1342        30.9287        5690.00        5567.78          75.43
      1343        30.9454        5692.00        5567.89          75.45
      1344        30.9621        5680.00        5568.08          75.37
      1345        30.9789        5667.00        5568.36          75.28
      1346        30.9956        5734.00        5568.75          75.72
      1347        31.0123        5756.00        5569.27          75.87
      1348        31.0290        5686.00        5569.97          75.41
      1349        31.0457        5713.00        5570.90          75.58
      1350        31.0624        5710.00        5572.12          75.56
      1351        31.0791        5551.00        5573.73          74.50
      1352        31.0958        5505.00        5575.90          74.20
      1353        31.1125        5485.00        5578.89          74.06
      1354        31.1292        5466.00        5583.31          73.93
      1355        31.1460        5509.00        5590.54          74.22
      1356        31.1627        5457.00        5603.48          73.87
      1357        31.1794        5623.00        5627.21          74.99
      1358        31.1961        5440.00        5668.26          73.76
      1359        31.2128        5654.00        5731.17          75.19
      1360        31.2295        5562.00        5812.36          74.58
      1361        31.2462        5748.00        5891.48          75.82
      1362        31.2629        5759.00        5929.15          75.89
      1363        31.2796        5697.00        5907.94          75.48
      1364        31.2964        5708.00        5862.78          75.55
      1365        31.3131        5711.00        5827.83          75.57
      1366        31.3298        5584.00        5805.20          74.73
      1367        31.3465        5624.00        5774.82          74.99
      1368        31.3632        5632.00        5728.00          75.05
      1369        31.3799        5444.00        5678.43          73.78
      1370        31.3966        5547.00        5638.00          74.48
      1371        31.4133        5441.00        5609.94          73.76
      1372        31.4301        5481.00        5592.66          74.03
      1373        31.4468        5326.00        5582.76          72.98
      1374        31.4635        5455.00        5577.12          73.86
      1375        31.4802        5485.00        5573.76          74.06
      1376        31.4969        5572.00        5571.68          74.65
      1377        31.5136        5381.00        5570.43          73.36
      1378        31.5303        5500.00        5569.86          74.16
      1379        31.5470        5364.00        5569.95          73.24
      1380        31.5638        5421.00        5570.80          73.63
      1381        31.5805        5459.00        5572.58          73.89
      1382        31.5972        5584.00        5575.59          74.73
      1383        31.6139        5455.00        5580.26          73.86
      1384        31.6306        5325.00        5587.06          72.97
      1385        31.6473        5345.00        5596.47          73.11
      1386        31.6640        5396.00        5608.78          73.46
      1387        31.6807        5506.00        5623.67          74.20
      1388        31.6974        5433.00        5639.46          73.71
      1389        31.7141        5625.00        5652.43          75.00
      1390        31.7309        5453.00        5658.33          73.84
      1391        31.7476        5477.00        5656.30          74.01
      1392        31.7643        5477.00        5649.66          74.01
      1393        31.7810        5441.00        5641.81          73.76
      1394        31.7977        5513.00        5633.23          74.25
      1395        31.8144        5501.00        5622.76          74.17
      1396        31.8311        5527.00        5610.37          74.34
      1397        31.8478        5462.00        5597.72          73.91
      1398        31.8645        5372.00        5586.42          73.29
      1399        31.8813        5410.00        5577.15          73.55
      1400        31.8980        5502.00        5569.89          74.18
      1401        31.9147        5455.00        5564.33          73.86
      1402        31.9314        5488.00        5560.12          74.08
      1403        31.9481        5488.00        5556.91          74.08
      1404        31.9648        5590.00        5554.42          74.77
      1405        31.9815        5470.00        5552.45          73.96
      1406        31.9982        5571.00        5550.83          74.64
      1407        32.0149        5591.00        5548.83          74.77
      1408        32.0317        5751.00        5547.68          75.84
      1409        32.0484        5800.00        5546.68          76.16
      1410        32.0651        5889.00        5545.79          76.74
      1411        32.0818        5904.00        5544.65          76.84
      1412        32.0985        5842.00        5543.93          76.43
      1413        32.1152        5822.00        5543.26          76.30
      1414        32.1319        5949.00        5542.64          77.13
      1415        32.1486        5850.00        5542.07          76.49
      1416        32.1653        5902.00        5541.52          76.82
      1417        32.1821        5877.00        5541.01          76.66
      1418        32.1988        5719.00        5540.52          75.62
      1419        32.2155        5686.00        5540.05          75.41
      1420        32.2322        5681.00        5539.60          75.37
      1421        32.2489        5635.00        5539.16          75.07
      1422        32.2656        5574.00        5538.74          74.66
      1423        32.2823        5518.00        5538.33          74.28
      1424        32.2990        5550.00        5537.94          74.50
      1425        32.3158        5517.00        5537.55          74.28
      1426        32.3325        5438.00        5537.17          73.74
      1427        32.3492        5545.00        5536.80          74.46
      1428        32.3659        5495.00        5536.43          74.13
      1429        32.3826        5212.00        5536.07          72.19
      1430        32.3993        5398.00        5535.72          73.47
      1431        32.4160        5423.00        5535.37          73.64
      1432        32.4327        5263.00        5535.03          72.55
      1433        32.4494        5226.00        5534.69          72.29
      1434        32.4661        5393.00        5534.36          73.44
      1435        32.4829        5403.00        5534.03          73.51
      1436        32.4996        5193.00        5533.70          72.06
      1437        32.5163        5237.00        5533.38          72.37
      1438        32.5330        5437.00        5533.06          73.74
      1439        32.5497        5250.00        5532.74          72.46
      1440        32.5664        5314.00        5532.42          72.90
      1441        32.5831        5346.00        5532.11          73.12
      1442        32.5998        5408.00        5531.80          73.54
      1443        32.6166        5371.00        5531.49          73.29
      1444        32.6333        5364.00        5531.18          73.24
      1445        32.6500        5269.00        5530.88          72.59
      1446        32.6667        5200.00        5530.58          72.11
      1447        32.6834        5279.00        5530.27          72.66
      1448        32.7001        5424.00        5529.97          73.65
      1449        32.7168        5364.00        5529.68          73.24
      1450        32.7335        5264.00        5529.38          72.55
      1451        32.7502        5372.00        5529.08          73.29
      1452        32.7670        5323.00        5528.79          72.96
      1453        32.7837        5342.00        5528.49          73.09
      1454        32.8004        5391.00        5528.20          73.42
      1455        32.8171        5437.00        5527.91          73.74
      1456        32.8338        5497.00        5533.17          74.14
      1457        32.8505        5340.00        5533.06          73.08
      1458        32.8672        5378.00        5532.96          73.33
      1459        32.8839        5412.00        5532.87          73.57
      1460        32.9007        5465.00        5532.79          73.93
      1461        32.9174        5342.00        5535.44          73.09
      1462        32.9341        5394.00        5535.47          73.44
      1463        32.9508        5316.00        5535.51          72.91
      1464        32.9675        5439.00        5535.57          73.75
      1465        32.9842        5470.00        5535.65          73.96
      1466        33.0009        5453.00        5535.74          73.84
      1467        33.0176        5416.00        5535.85          73.59
      1468        33.0343        5589.00        5535.98          74.76
      1469        33.0510        5653.00        5536.14          75.19
      1470        33.0678        5718.00        5536.31          75.62
      1471        33.0845        5770.00        5536.52          75.96
      1472        33.1012        5939.00        5536.75          77.06
      1473        33.1179        5727.00        5537.00          75.68
      1474        33.1346        5934.00        5537.29          77.03
      1475        33.1513        5997.00        5537.61          77.44
      1476        33.1680        6122.00        5537.97          78.24
      1477        33.1847        6318.00        5538.37          79.49
      1478        33.2015        6429.00        5538.80          80.18
      1479        33.2182        6505.00        5539.29          80.65
      1480        33.2349        6622.00        5539.82          81.38
      1481        33.2516        6622.00        5540.41          81.38
      1482        33.2683        6695.00        5541.05          81.82
      1483        33.2850        6762.00        5541.76          82.23
      1484        33.3017        6751.00        5542.54          82.16
      1485        33.3184        6623.00        5544.89          81.38
      1486        33.3351        6765.00        5545.90          82.25
      1487        33.3518        6709.00        5547.01          81.91
      1488        33.3686        6774.00        5548.23          82.30
      1489        33.3853        6711.00        5549.57          81.92
      1490        33.4020        6510.00        5551.04          80.68
      1491        33.4187        6536.00        5553.43          80.85
      1492        33.4354        6467.00        5555.26          80.42
      1493        33.4521        6494.00        5557.27          80.59
      1494        33.4688        6411.00        5559.50          80.07
      1495        33.4855        6329.00        5561.96          79.56
      1496        33.5023        6341.00        5588.34          79.63
      1497        33.5190        6382.00        5592.50          79.89
      1498        33.5357        6366.00        5597.10          79.79
      1499        33.5524        6579.00        5785.66          81.11
      1500        33.5691        6444.00        5800.00          80.27
      1501        33.5858        6409.00        5827.16          80.06
      1502        33.6025        6538.00        5844.76          80.86
      1503        33.6192        6475.00        5864.01          80.47
      1504        33.6359        6513.00        5885.16          80.70
      1505        33.6526        6546.00        6184.94          80.91
      1506        33.6694        6607.00        6223.95          81.28
      1507        33.6861        6585.00        6266.80          81.15
      1508        33.7028        6673.00        6505.40          81.69
      1509        33.7195        6719.00        6567.03          81.97
      1510        33.7362        6837.00        6724.62          82.69
      1511        33.7529        6715.00        6805.29          81.95
      1512        33.7696        6848.00        6896.17          82.75
      1513        33.7863        6797.00        7093.29          82.44
      1514        33.8031        7072.00        7218.18          84.10
      1515        33.8198        7079.00        7365.55          84.14
      1516        33.8365        7196.00        7543.34          84.83
      1517        33.8532        7417.00        7761.55          86.12
      1518        33.8699        7474.00        8032.61          86.45
      1519        33.8866        8206.00        8368.07          90.59
      1520        33.9033        8396.00        8778.99          91.63
      1521        33.9200        8742.00        9270.05          93.50
      1522        33.9367        9240.00        9832.83          96.12
      1523        33.9535        9843.00       10432.70          99.21
      1524        33.9702       10698.00       11006.80         103.43
      1525        33.9869       11034.00       11498.10         105.04
      1526        34.0036       11626.00       11917.30         107.82
      1527        34.0203       12210.00       12333.30         110.50
      1528        34.0370       12933.00       12782.40         113.72
      1529        34.0537       13289.00       13210.40         115.28
      1530        34.0704       14188.00       13579.10         119.11
      1531        34.0872       15588.00       13994.10         124.85
      1532        34.1039       16787.00       14624.00         129.57
      1533        34.1206       18845.00       15635.60         137.28
      1534        34.1373       21528.00       17212.10         146.72
      1535        34.1540       25069.00       19700.40         158.33
      1536        34.1707       29784.00       23763.60         172.58
      1537        34.1874       36141.00       30417.40         190.11
      1538        34.2041       45171.00       40914.70         212.54
      1539        34.2208       57650.00       56102.20         240.10
      1540        34.2375       74092.00       75623.30         272.20
      1541        34.2543       95949.00       98040.00         309.76
      1542        34.2710      122600.00      118617.00         350.14
      1543        34.2877      149339.00      128448.00         386.44
      1544        34.3044      156017.00      127733.00         394.99
      1545        34.3211      139958.00      129366.00         374.11
      1546        34.3378      131204.00      143262.00         362.22
      1547        34.3545      148751.00      169720.00         385.68
      1548        34.3712      185025.00      197349.00         430.14
      1549        34.3879      219434.00      210755.00         468.44
      1550        34.4047      222732.00      208766.00         471.95
      1551        34.4214      199417.00      196776.00         446.56
      1552        34.4381      178227.00      176341.00         422.17
      1553        34.4548      153133.00      154611.00         391.32
      1554        34.4715      126880.00      135832.00         356.20
      1555        34.4882      110007.00      118842.00         331.67
      1556        34.5049       96579.00      102437.00         310.77
      1557        34.5216       82564.00       83580.80         287.34
      1558        34.5383       65745.00       63348.60         256.41
      1559        34.5551       43733.00       46040.20         209.12
      1560        34.5718       27329.00       33469.10         165.32
      1561        34.5885       19554.00       25251.20         139.84
      1562        34.6052       16093.00       20183.10         126.86
      1563        34.6219       14327.00       17053.50         119.69
      1564        34.6386       12820.00       15019.40         113.22
      1565        34.6553       11795.00       13592.90         108.61
      1566        34.6720       11230.00       12520.20         105.97
      1567        34.6887       10397.00       11665.80         101.97
      1568        34.7055        9803.00       10962.90          99.01
      1569        34.7222        9409.00       10387.00          97.00
      1570        34.7389        9265.00        9929.90          96.25
      1571        34.7556        8768.00        9593.69          93.64
      1572        34.7723        8778.00        9396.75          93.69
      1573        34.7890        8708.00        9364.53          93.32
      1574        34.8057        8844.00        9511.62          94.04
      1575        34.8224        9245.00        9789.60          96.15
      1576        34.8391        9450.00       10032.50          97.21
      1577        34.8559        9578.00        9976.39          97.87
      1578        34.8726        9552.00        9583.53          97.73
      1579        34.8893        8876.00        9122.78          94.21
      1580        34.9060        8796.00        8792.76          93.79
      1581        34.9227        8798.00        8603.29          93.80
      1582        34.9394        8751.00        8414.96          93.55
      1583        34.9561        8344.00        8105.08          91.35
      1584        34.9728        8117.00        7705.31          90.09
      1585        34.9896        7734.00        7362.75          87.94
      1586        35.0063        7411.00        7096.65          86.09
      1587        35.0230        7167.00        6727.39          84.66
      1588        35.0397        7112.00        6600.78          84.33
      1589        35.0564        6964.00        6497.86          83.45
      1590        35.0731        6947.00        6426.93          83.35
      1591        35.0898        6833.00        6367.72          82.66
      1592        35.1065        6581.00        6227.00          81.12
      1593        35.1232        6494.00        6009.62          80.59
      1594        35.1400        6255.00        5973.78          79.09
      1595        35.1567        6358.00        5762.79          79.74
      1596        35.1734        6414.00        5746.49          80.09
      1597        35.1901        6335.00        5731.84          79.59
      1598        35.2068        6398.00        5630.84          79.99
      1599        35.2235        6382.00        5619.76          79.89
      1600        35.2402        6238.00        5612.37          78.98
      1601        35.2569        6273.00        5517.58          79.20
      1602        35.2736        6298.00        5515.25          79.36
      1603        35.2904        6350.00        5513.19          79.69
      1604        35.3071        6113.00        5511.35          78.19
      1605        35.3238        6153.00        5509.71          78.44
      1606        35.3405        6064.00        5507.80          77.87
      1607        35.3572        6129.00        5506.49          78.29
      1608        35.3739        5945.00        5505.30          77.10
      1609        35.3906        5986.00        5504.23          77.37
      1610        35.4073        6145.00        5503.26          78.39
      1611        35.4240        5844.00        5502.15          76.45
      1612        35.4408        6036.00        5501.35          77.69
      1613        35.4575        6099.00        5500.63          78.10
      1614        35.4742        6024.00        5499.97          77.61
      1615        35.4909        6014.00        5499.38          77.55
      1616        35.5076        5970.00        5498.84          77.27
      1617        35.5243        5908.00        5498.36          76.86
      1618        35.5410        5932.00        5497.94          77.02
      1619        35.5577        6064.00        5497.56          77.87
      1620        35.5744        5950.00        5497.24          77.14
      1621        35.5912        5985.00        5492.78          77.36
      1622        35.6079        5972.00        5492.75          77.28
      1623        35.6246        5995.00        5492.76          77.43
      1624        35.6413        5930.00        5492.82          77.01
      1625        35.6580        6086.00        5492.94          78.01
      1626        35.6747        5966.00        5491.00          77.24
      1627        35.6914        6036.00        5491.34          77.69
      1628        35.7081        6071.00        5491.74          77.92
      1629        35.7248        5894.00        5492.22          76.77
      1630        35.7416        5870.00        5492.80          76.62
      1631        35.7583        6032.00        5493.48          77.67
      1632        35.7750        5846.00        5494.30          76.46
      1633        35.7917        5747.00        5495.27          75.81
      1634        35.8084        5852.00        5496.43          76.50
      1635        35.8251        5857.00        5497.82          76.53
      1636        35.8418        5923.00        5499.49          76.96
      1637        35.8585        5872.00        5501.52          76.63
      1638        35.8753        5875.00        5504.02          76.65
      1639        35.8920        5762.00        5507.17          75.91
      1640        35.9087        5985.00        5511.24          77.36
      1641        35.9254        5784.00        5516.67          76.05
      1642        35.9421        5785.00        5524.11          76.06
      1643        35.9588        5978.00        5534.50          77.32
      1644        35.9755        5897.00        5549.04          76.79
      1645        35.9922        6006.00        5569.14          77.50
      1646        36.0089        5996.00        5596.20          77.43
      1647        36.0257        6104.00        5631.28          78.13
      1648        36.0424        6271.00        5675.55          79.19
      1649        36.0591        6659.00        5725.58          81.60
      1650        36.0758        6608.00        5777.77          81.29
      1651        36.0925        6945.00        5823.28          83.34
      1652        36.1092        7266.00        5851.26          85.24
      1653        36.1259        7726.00        5856.12          87.90
      1654        36.1426        7891.00        5843.13          88.83
      1655        36.1593        7889.00        5821.08          88.82
      1656        36.1761        7995.00        5796.58          89.41
      1657        36.1928        7635.00        5769.66          87.38
      1658        36.2095        7119.00        5737.55          84.37
      1659        36.2262        6893.00        5700.13          83.02
      1660        36.2429        6934.00        5661.80          83.27
      1661        36.2596        6677.00        5625.48          81.71
      1662        36.2763        6564.00        5594.36          81.02
      1663        36.2930        6336.00        5569.12          79.60
      1664        36.3097        6115.00        5549.42          78.20
      1665        36.3265        5945.00        5534.51          77.10
      1666        36.3432        5882.00        5523.80          76.69
      1667        36.3599        5862.00        5515.69          76.56
      1668        36.3766        5655.00        5509.75          75.20
      1669        36.3933        5667.00        5505.35          75.28
      1670        36.4100        5739.00        5502.05          75.76
      1671        36.4267        5708.00        5499.53          75.55
      1672        36.4434        5646.00        5497.61          75.14
      1673        36.4602        5653.00        5496.16          75.19
      1674        36.4769        5648.00        5495.11          75.15
      1675        36.4936        5488.00        5494.43          74.08
      1676        36.5103        5487.00        5494.10          74.07
      1677        36.5270        5590.00        5494.14          74.77
      1678        36.5437        5658.00        5494.58          75.22
      1679        36.5604        5796.00        5495.46          76.13
      1680        36.5771        5582.00        5496.89          74.71
      1681        36.5938        5549.00        5498.99          74.49
      1682        36.6105        5566.00        5502.00          74.61
      1683        36.6273        5578.00        5506.33          74.69
      1684        36.6440        5611.00        5512.92          74.91
      1685        36.6607        5743.00        5523.83          75.78
      1686        36.6774        5598.00        5543.40          74.82
      1687        36.6941        5650.00        5579.03          75.17
      1688        36.7108        5729.00        5639.59          75.69
      1689        36.7275        5705.00        5730.14          75.53
      1690        36.7442        5682.00        5842.57          75.38
      1691        36.7609        5724.00        5941.69          75.66
      1692        36.7777        5755.00        5969.32          75.86
      1693        36.7944        5795.00        5916.59          76.12
      1694        36.8111        5787.00        5844.22          76.07
      1695        36.8278        5734.00        5800.00          75.72
      1696        36.8445        5592.00        5792.19          74.78
      1697        36.8612        5861.00        5797.13          76.56
      1698        36.8779        5710.00        5783.53          75.56
      1699        36.8946        5722.00        5758.18          75.64
      1700        36.9114        5696.00        5751.55          75.47
      1701        36.9281        5711.00        5778.42          75.57
      1702        36.9448        5669.00        5827.36          75.29
      1703        36.9615        5708.00        5858.52          75.55
      1704        36.9782        5706.00        5834.02          75.54
      1705        36.9949        5590.00        5774.04          74.77
      1706        37.0116        5513.00        5721.88          74.25
      1707        37.0283        5710.00        5696.63          75.56
      1708        37.0450        5495.00        5690.91          74.13
      1709        37.0617        5631.00        5678.63          75.04
      1710        37.0785        5666.00        5642.89          75.27
      1711        37.0952        5779.00        5596.13          76.02
      1712        37.1119        5726.00        5554.59          75.67
      1713        37.1286        5555.00        5524.31          74.53
      1714        37.1453        5757.00        5504.85          75.87
      1715        37.1620        5694.00        5493.16          75.46
      1716        37.1787        5710.00        5486.05          75.56
      1717        37.1954        5829.00        5481.36          76.35
      1718        37.2122        5931.00        5477.94          77.01
      1719        37.2289        5810.00        5475.26          76.22
      1720        37.2456        5946.00        5473.06          77.11
      1721        37.2623        5799.00        5471.21          76.15
      1722        37.2790        5876.00        5469.62          76.66
      1723        37.2957        5756.00        5468.23          75.87
      1724        37.3124        5841.00        5466.22          76.43
      1725        37.3291        5804.00        5465.15          76.18
      1726        37.3458        5715.00        5464.19          75.60
      1727        37.3626        5600.00        5463.31          74.83
      1728        37.3793        5538.00        5462.51          74.42
      1729        37.3960        5658.00        5461.77          75.22
      1730        37.4127        5513.00        5460.70          74.25
      1731        37.4294        5527.00        5460.06          74.34
      1732        37.4461        5502.00        5459.47          74.18
      1733        37.4628        5505.00        5458.91          74.20
      1734        37.4795        5524.00        5458.38          74.32
      1735        37.4963        5506.00        5457.87          74.20
      1736        37.5130        5551.00        5456.45          74.50
      1737        37.5297        5479.00        5456.04          74.02
      1738        37.5464        5476.00        5455.63          74.00
      1739        37.5631        5523.00        5455.25          74.32
      1740        37.5798        5557.00        5454.87          74.55
      1741        37.5965        5481.00        5454.51          74.03
      1742        37.6132        5407.00        5453.71          73.53
      1743        37.6299        5534.00        5453.40          74.39
      1744        37.6466        5459.00        5453.10          73.89
      1745        37.6634        5412.00        5452.81          73.57
      1746        37.6801        5405.00        5452.53          73.52
      1747        37.6968        5361.00        5451.57          73.22
      1748        37.7135        5475.00        5451.35          73.99
      1749        37.7302        5486.00        5451.15          74.07
      1750        37.7469        5288.00        5450.95          72.72
      1751        37.7636        5552.00        5450.78          74.51
      1752        37.7803        5569.00        5450.62          74.63
      1753        37.7971        5365.00        5450.15          73.25
      1754        37.8138        5362.00        5450.06          73.23
      1755        37.8305        5344.00        5449.99          73.10
      1756        37.8472        5426.00        5449.97          73.66
      1757        37.8639        5391.00        5449.99          73.42
      1758        37.8806        5407.00        5450.08          73.53
      1759        37.8973        5382.00        5450.24          73.36
      1760        37.9140        5496.00        5450.51          74.14
      1761        37.9307        5339.00        5450.95          73.07
      1762        37.9474        5341.00        5451.63          73.08
      1763        37.9642        5380.00        5452.68          73.35
      1764        37.9809        5524.00        5454.24          74.32
      1765        37.9976        5492.00        5456.54          74.11
      1766        38.0143        5404.00        5459.82          73.51
      1767        38.0310        5342.00        5464.30          73.09
      1768        38.0477        5494.00        5470.14          74.12
      1769        38.0644        5566.00        5477.36          74.61
      1770        38.0811        5422.00        5485.72          73.63
      1771        38.0978        5616.00        5494.52          74.94
      1772        38.1146        5523.00        5502.47          74.32
      1773        38.1313        5475.00        5507.84          73.99
      1774        38.1480        5561.00        5509.45          74.57
      1775        38.1647        5245.00        5507.64          72.42
      1776        38.1814        5552.00        5503.88          74.51
      1777        38.1981        5404.00        5499.44          73.51
      1778        38.2148        5477.00        5494.74          74.01
      1779        38.2315        5491.00        5489.46          74.10
      1780        38.2482        5567.00        5483.24          74.61
      1781        38.2650        5315.00        5476.34          72.90
      1782        38.2817        5420.00        5469.42          73.62
      1783        38.2984        5228.00        5463.10          72.30
      1784        38.3151        5513.00        5457.68          74.25
      1785        38.3318        5390.00        5453.22          73.42
      1786        38.3485        5373.00        5449.67          73.30
      1787        38.3652        5377.00        5446.89          73.33
      1788        38.3819        5379.00        5465.52          73.34
      1789        38.3986        5343.00        5464.85          73.10
      1790        38.4154        5334.00        5464.59          73.03
      1791        38.4321        5268.00        5474.73          72.58
      1792        38.4488        5537.00        5475.54          74.41
      1793        38.4655        5450.00        5476.61          73.82
      1794        38.4822        5354.00        5488.16          73.17
      1795        38.4989        5456.00        5490.17          73.86
      1796        38.5156        5288.00        5492.43          72.72
      1797        38.5323        5325.00        5499.94          72.97
      1798        38.5491        5328.00        5503.02          72.99
      1799        38.5658        5269.00        5506.44          72.59
      1800        38.5825        5348.00        5510.23          73.13
      1801        38.5992        5262.00        5514.44          72.54
      1802        38.6159        5450.00        5519.11          73.82
      1803        38.6326        5328.00        5524.30          72.99
      1804        38.6493        5363.00        5530.09          73.23
      1805        38.6660        5376.00        5536.55          73.32
      1806        38.6827        5478.00        5543.79          74.01
      1807        38.6995        5468.00        5551.92          73.95
      1808        38.7162        5447.00        5561.07          73.80
      1809        38.7329        5268.00        5571.43          72.58
      1810        38.7496        5546.00        5583.19          74.47
      1811        38.7663        5342.00        5596.62          73.09
      1812        38.7830        5528.00        5612.04          74.35
      1813        38.7997        5502.00        5630.30          74.18
      1814        38.8164        5469.00        5651.03          73.95
      1815        38.8331        5536.00        5675.28          74.40
      1816        38.8499        5641.00        5703.94          75.11
      1817        38.8666        5793.00        5738.11          76.11
      1818        38.8833        5977.00        5779.29          77.31
      1819        38.9000        5975.00        5829.74          77.30
      1820        38.9167        5979.00        5891.89          77.32
      1821        38.9334        6221.00        5970.20          78.87
      1822        38.9501        6597.00        6071.29          81.22
      1823        38.9668        6832.00        6207.69          82.66
      1824        38.9835        7220.00        6406.18          84.97
      1825        39.0003        8076.00        6725.90          89.87
      1826        39.0170        8542.00        7282.66          92.42
      1827        39.0337        9886.00        8259.14          99.43
      1828        39.0504       11574.00        9863.77         107.58
      1829        39.0671       12912.00       12181.90         113.63
      1830        39.0838       14456.00       14971.00         120.23
      1831        39.1005       15952.00       17336.50         126.30
      1832        39.1172       17692.00       18179.40         133.01
      1833        39.1339       18627.00       17765.50         136.48
      1834        39.1507       17813.00       16994.20         133.46
      1835        39.1674       16750.00       16084.90         129.42
      1836        39.1841       15936.00       15260.10         126.24
      1837        39.2008       14931.00       14586.60         122.19
      1838        39.2175       14123.00       13654.10         118.84
      1839        39.2342       12942.00       12451.10         113.76
      1840        39.2509       11803.00       11240.00         108.64
      1841        39.2676       10426.00        9984.82         102.11
      1842        39.2843        9552.00        8750.91          97.73
      1843        39.3011        8821.00        7742.45          93.92
      1844        39.3178        7866.00        7028.24          88.69
      1845        39.3345        7447.00        6564.81          86.30
      1846        39.3512        6989.00        6278.63          83.60
      1847        39.3679        6654.00        6101.28          81.57
      1848        39.3846        6625.00        5984.89          81.39
      1849        39.4013        6509.00        5902.64          80.68
      1850        39.4180        6458.00        5840.67          80.36
      1851        39.4347        6218.00        5792.26          78.85
      1852        39.4515        6249.00        5753.73          79.05
      1853        39.4682        6297.00        5722.82          79.35
      1854        39.4849        6295.00        5697.99          79.34
      1855        39.5016        6163.00        5678.30          78.50
      1856        39.5183        6074.00        5662.98          77.94
      1857        39.5350        6190.00        5651.59          78.68
      1858        39.5517        6045.00        5657.11          77.75
      1859        39.5684        6204.00        5653.76          78.77
      1860        39.5851        6063.00        5654.41          77.87
      1861        39.6019        6176.00        5659.63          78.59
      1862        39.6186        6123.00        5670.53          78.25
      1863        39.6353        6237.00        5689.36          78.97
      1864        39.6520        6483.00        5721.18          80.52
      1865        39.6687        6345.00        5784.38          79.66
      1866        39.6854        6555.00        5889.70          80.96
      1867        39.7021        6572.00        6083.44          81.07
      1868        39.7188        6516.00        6411.93          80.72
      1869        39.7356        6757.00        6898.73          82.20
      1870        39.7523        6990.00        7490.41          83.61
      1871        39.7690        7218.00        7982.03          84.96
      1872        39.7857        7503.00        8060.41          86.62
      1873        39.8024        7840.00        7715.98          88.54
      1874        39.8191        7892.00        7286.92          88.84
      1875        39.8358        7460.00        7018.89          86.37
      1876        39.8525        7082.00        6942.52          84.15
      1877        39.8692        6724.00        6992.00          82.00
      1878        39.8860        6610.00        6931.82          81.30
      1879        39.9027        6695.00        6690.87          81.82
      1880        39.9194        6635.00        6380.80          81.46
      1881        39.9361        6562.00        6117.17          81.01
      1882        39.9528        6197.00        5929.33          78.72
      1883        39.9695        6137.00        5831.90          78.34
      1884        39.9862        5989.00        5792.61          77.39
      1885        40.0029        5943.00        5784.95          77.09
      1886        40.0196        6040.00        5803.41          77.72
      1887        40.0364        6154.00        5833.57          78.45
      1888        40.0531        6142.00        5868.16          78.37
      1889        40.0698        6279.00        5900.80          79.24
      1890        40.0865        6102.00        5928.09          78.12
      1891        40.1032        6236.00        5952.40          78.97
      1892        40.1199        6163.00        5981.22          78.50
      1893        40.1366        6285.00        6024.30          79.28
      1894        40.1533        6505.00        6094.87          80.65
      1895        40.1700        6563.00        6218.14          81.01
      1896        40.1868        6891.00        6447.25          83.01
      1897        40.2035        7184.00        6876.63          84.76
      1898        40.2202        7973.00        7626.67          89.29
      1899        40.2369        8681.00        8775.54          93.17
      1900        40.2536        9865.00       10235.90          99.32
      1901        40.2703       11350.00       11562.70         106.54
      1902        40.2870       12920.00       11954.60         113.67
      1903        40.3037       12462.00       11187.30         111.63
      1904        40.3204       10858.00       10051.20         104.20
      1905        40.3372        9125.00        9255.47          95.52
      1906        40.3539        8703.00        9009.52          93.29
      1907        40.3706        9117.00        9123.30          95.48
      1908        40.3873        9240.00        9101.32          96.12
      1909        40.4040        9329.00        8582.39          96.59
      1910        40.4207        8759.00        7778.84          93.59
      1911        40.4374        7514.00        7028.47          86.68
      1912        40.4541        6721.00        6471.88          81.98
      1913        40.4708        6358.00        6114.45          79.74
      1914        40.4876        6305.00        5903.76          79.40
      1915        40.5043        6134.00        5781.20          78.32
      1916        40.5210        6218.00        5700.05          78.85
      1917        40.5377        6091.00        5648.07          78.04
      1918        40.5544        5838.00        5609.43          76.41
      1919        40.5711        5801.00        5579.23          76.16
      1920        40.5878        5723.00        5554.96          75.65
      1921        40.6045        5769.00        5535.09          75.95
      1922        40.6213        5668.00        5516.06          75.29
      1923        40.6380        5527.00        5502.27          74.34
      1924        40.6547        5511.00        5490.54          74.24
      1925        40.6714        5537.00        5480.46          74.41
      1926        40.6881        5535.00        5471.73          74.40
      1927        40.7048        5437.00        5464.10          73.74
      1928        40.7215        5456.00        5457.38          73.86
      1929        40.7382        5356.00        5451.42          73.18
      1930        40.7549        5354.00        5446.11          73.17
      1931        40.7716        5352.00        5443.31          73.16
      1932        40.7884        5330.00        5439.10          73.01
      1933        40.8051        5247.00        5451.12          72.44
      1934        40.8218        5228.00        5448.43          72.30
      1935        40.8385        5309.00        5446.10          72.86
      1936        40.8552        5374.00        5444.11          73.31
      1937        40.8719        5310.00        5442.43          72.87
      1938        40.8886        5334.00        5441.95          73.03
      1939        40.9053        5236.00        5440.88          72.36
      1940        40.9221        5190.00        5448.09          72.04
      1941        40.9388        5424.00        5447.93          73.65
      1942        40.9555        5284.00        5448.06          72.69
      1943        40.9722        5223.00        5448.49          72.27
      1944        40.9889        5217.00        5449.22          72.23
      1945        41.0056        5174.00        5450.27          71.93
      1946        41.0223        5320.00        5438.72          72.94
      1947        41.0390        5161.00        5441.05          71.84
      1948        41.0557        5343.00        5443.73          73.10
      1949        41.0725        5187.00        5446.82          72.02
      1950        41.0892        5315.00        5450.37          72.90
      1951        41.1059        5383.00        5454.45          73.37
      1952        41.1226        5241.00        5456.70          72.39
      1953        41.1393        5245.00        5462.55          72.42
      1954        41.1560        5119.00        5469.21          71.55
      1955        41.1727        5385.00        5476.82          73.38
      1956        41.1894        5489.00        5485.56          74.09
      1957        41.2062        5272.00        5495.65          72.61
      1958        41.2229        5417.00        5509.34          73.60
      1959        41.2396        5455.00        5523.17          73.86
      1960        41.2563        5539.00        5539.47          74.42
      1961        41.2730        5618.00        5558.86          74.95
      1962        41.2897        5672.00        5582.17          75.31
      1963        41.3064        5765.00        5610.51          75.93
      1964        41.3231        5832.00        5645.41          76.37
      1965        41.3398        6063.00        5689.11          77.87
      1966        41.3565        6203.00        5744.58          78.76
      1967        41.3733        6479.00        5818.79          80.49
      1968        41.3900        6540.00        5923.20          80.87
      1969        41.4067        6743.00        6084.31          82.12
      1970        41.4234        7015.00        6353.22          83.76
      1971        41.4401        7180.00        6824.92          84.73
      1972        41.4568        7902.00        7630.21          88.89
      1973        41.4735        8914.00        8884.97          94.41
      1974        41.4902        9939.00       10565.30          99.69
      1975        41.5070       11527.00       12352.10         107.36
      1976        41.5237       12559.00       13547.40         112.07
      1977        41.5404       13029.00       13373.80         114.14
      1978        41.5571       12485.00       12102.50         111.74
      1979        41.5738       11318.00       10787.10         106.39
      1980        41.5905       10112.00       10051.10         100.56
      1981        41.6072        9636.00        9940.01          98.16
      1982        41.6239        9560.00       10104.30          97.78
      1983        41.6406        9507.00        9969.31          97.50
      1984        41.6573        9088.00        9236.28          95.33
      1985        41.6741        8269.00        8238.45          90.93
      1986        41.6908        7730.00        7357.48          87.92
      1987        41.7075        6818.00        6733.02          82.57
      1988        41.7242        6288.00        6358.46          79.30
      1989        41.7409        6169.00        6185.02          78.54
      1990        41.7576        6198.00        6146.23          78.73
      1991        41.7743        6167.00        6236.76          78.53
      1992        41.7910        6450.00        6463.72          80.31
      1993        41.8077        6539.00        6819.57          80.86
      1994        41.8245        6727.00        7230.03          82.02
      1995        41.8412        7092.00        7492.96          84.21
      1996        41.8579        6916.00        7409.91          83.16
      1997        41.8746        6729.00        7075.86          82.03
      1998        41.8913        6526.00        6753.73          80.78
      1999        41.9080        6166.00        6580.86          78.52
      2000        41.9247        6233.00        6567.77          78.95
      2001        41.9414        6062.00        6623.99          77.86
      2002        41.9581        6010.00        6594.90          77.52
      2003        41.9749        6192.00        6413.79          78.69
      2004        41.9916        5769.00        6172.92          75.95
      2005        42.0083        5687.00        5963.34          75.41
      2006        42.0250        5465.00        5817.33          73.93
      2007        42.0417        5535.00        5734.33          74.40
      2008        42.0584        5576.00        5703.20          74.67
      2009        42.0751        5521.00        5714.52          74.30
      2010        42.0918        5627.00        5761.46          75.01
      2011        42.1086        5721.00        5831.70          75.64
      2012        42.1253        5992.00        5893.40          77.41
      2013        42.1420        6140.00        5898.18          78.36
      2014        42.1587        6254.00        5840.44          79.08
      2015        42.1754        6027.00        5769.31          77.63
      2016        42.1921        6028.00        5723.31          77.64
      2017        42.2088        5634.00        5713.35          75.06
      2018        42.2255        5744.00        5729.62          75.79
      2019        42.2422        5803.00        5743.32          76.18
      2020        42.2590        5788.00        5733.20          76.08
      2021        42.2757        5858.00        5690.79          76.54
      2022        42.2924        5753.00        5669.68          75.85
      2023        42.3091        5833.00        5666.89          76.37
      2024        42.3258        5820.00        5687.66          76.29
      2025        42.3425        5934.00        5736.33          77.03
      2026        42.3592        6070.00        5828.85          77.91
      2027        42.3759        6311.00        5991.04          79.44
      2028        42.3927        6640.00        6301.99          81.49
      2029        42.4094        7286.00        6837.57          85.36
      2030        42.4261        7341.00        7655.32          85.68
      2031        42.4428        8099.00        8708.82          89.99
      2032        42.4595        8646.00        9711.67          92.98
      2033        42.4762        9431.00       10104.80          97.11
      2034        42.4929       10020.00        9669.10         100.10
      2035        42.5096       10173.00        8931.70         100.86
      2036        42.5263        9306.00        8403.09          96.47
      2037        42.5430        8316.00        8221.58          91.19
      2038        42.5598        8051.00        8276.77          89.73
      2039        42.5765        7939.00        8323.95          89.10
      2040        42.5932        8011.00        8067.99          89.50
      2041        42.6099        7957.00        7530.80          89.20
      2042        42.6266        7478.00        6969.98          86.48
      2043        42.6433        6993.00        6530.06          83.62
      2044        42.6600        6365.00        6210.80          79.78
      2045        42.6767        6164.00        5974.31          78.51
      2046        42.6934        5799.00        5801.18          76.15
      2047        42.7102        5655.00        5682.41          75.20
      2048        42.7269        5626.00        5601.79          75.01
      2049        42.7436        5622.00        5547.41          74.98
      2050        42.7603        5642.00        5510.06          75.11
      2051        42.7770        5512.00        5483.25          74.24
      2052        42.7937        5476.00        5462.90          74.00
      2053        42.8104        5537.00        5446.73          74.41
      2054        42.8271        5690.00        5433.50          75.43
      2055        42.8438        5424.00        5422.45          73.65
      2056        42.8606        5459.00        5413.11          73.89
      2057        42.8773        5259.00        5405.30          72.52
      2058        42.8940        5477.00        5398.45          74.01
      2059        42.9107        5322.00        5392.50          72.95
      2060        42.9274        5372.00        5387.28          73.29
      2061        42.9441        5309.00        5382.67          72.86
      2062        42.9608        5439.00        5378.58          73.75
      2063        42.9775        5534.00        5375.39          74.39
      2064        42.9942        5561.00        5371.78          74.57
      2065        43.0110        5408.00        5368.87          73.54
      2066        43.0277        5376.00        5366.26          73.32
      2067        43.0444        5333.00        5363.90          73.03
      2068        43.0611        5285.00        5361.77          72.70
      2069        43.0778        5226.00        5359.84          72.29
      2070        43.0945        5233.00        5358.10          72.34
      2071        43.1112        5431.00        5356.53          73.70
      2072        43.1279        5392.00        5355.12          73.43
      2073        43.1446        5082.00        5353.85          71.29
      2074        43.1614        5262.00        5352.74          72.54
      2075        43.1781        5290.00        5351.76          72.73
      2076        43.1948        5195.00        5350.91          72.08
      2077        43.2115        5218.00        5340.80          72.24
      2078        43.2282        5128.00        5340.64          71.61
      2079        43.2449        5188.00        5340.61          72.03
      2080        43.2616        5231.00        5340.63          72.33
      2081        43.2783        5138.00        5339.86          71.68
      2082        43.2951        5197.00        5340.33          72.09
      2083        43.3118        5130.00        5340.99          71.62
      2084        43.3285        5228.00        5337.29          72.30
      2085        43.3452        5101.00        5338.64          71.42
      2086        43.3619        5162.00        5340.26          71.85
      2087        43.3786        5318.00        5342.32          72.92
      2088        43.3953        5291.00        5344.37          72.74
      2089        43.4120        5153.00        5347.59          71.78
      2090        43.4287        5303.00        5351.67          72.82
      2091        43.4455        5382.00        5356.98          73.36
      2092        43.4622        5267.00        5364.22          72.57
      2093        43.4789        5586.00        5374.93          74.74
      2094        43.4956        5544.00        5473.79          74.46
      2095        43.5123        5329.00        5507.67          73.00
      2096        43.5290        5333.00        5562.69          73.03
      2097        43.5457        5270.00        5646.28          72.59
      2098        43.5624        5506.00        5757.63          74.20
      2099        43.5791        5632.00        5876.45          75.05
      2100        43.5959        5625.00        5953.16          75.00
      2101        43.6126        5683.00        5992.56          75.39
      2102        43.6293        5672.00        5955.26          75.31
      2103        43.6460        5714.00        5937.51          75.59
      2104        43.6627        5792.00        5965.07          76.11
      2105        43.6794        5931.00        6036.07          77.01
      2106        43.6961        5735.00        6125.93          75.73
      2107        43.7128        5680.00        6192.28          75.37
      2108        43.7295        5864.00        6207.81          76.58
      2109        43.7463        5962.00        6185.66          77.21
      2110        43.7630        5978.00        6148.73          77.32
      2111        43.7797        5771.00        6112.41          75.97
      2112        43.7964        5800.00        6084.75          76.16
      2113        43.8131        5794.00        6067.46          76.12
      2114        43.8298        5611.00        6057.98          74.91
      2115        43.8465        5629.00        6052.13          75.03
      2116        43.8632        5533.00        6047.08          74.38
      2117        43.8799        5627.00        6043.51          75.01
      2118        43.8967        5710.00        6045.10          75.56
      2119        43.9134        5685.00        6056.22          75.40
      2120        43.9301        5859.00        6080.61          76.54
      2121        43.9468        5932.00        6121.31          77.02
      2122        43.9635        5926.00        6181.09          76.98
      2123        43.9802        6025.00        6263.15          77.62
      2124        43.9969        6270.00        6371.56          79.18
      2125        44.0136        6600.00        6512.03          81.24
      2126        44.0303        6566.00        6692.95          81.03
      2127        44.0471        6974.00        6927.29          83.51
      2128        44.0638        7416.00        7236.95          86.12
      2129        44.0805        7769.00        7664.98          88.14
      2130        44.0972        8303.00        8305.84          91.12
      2131        44.1139        9514.00        9367.05          97.54
      2132        44.1306       11192.00       11256.00         105.79
      2133        44.1473       13527.00       14592.10         116.31
      2134        44.1640       17626.00       20018.80         132.76
      2135        44.1807       23326.00       27686.80         152.73
      2136        44.1975       30181.00       36405.90         173.73
      2137        44.2142       37185.00       42531.00         192.83
      2138        44.2309       40207.00       41743.20         200.52
      2139        44.2476       35970.00       35407.50         189.66
      2140        44.2643       28372.00       28641.20         168.44
      2141        44.2810       22277.00       24538.00         149.26
      2142        44.2977       19985.00       23762.30         141.37
      2143        44.3144       20999.00       25243.00         144.91
      2144        44.3312       22888.00       26369.30         151.29
      2145        44.3479       22739.00       24532.90         150.79
      2146        44.3646       20152.00       20271.50         141.96
      2147        44.3813       15533.00       15778.90         124.63
      2148        44.3980       11647.00       12244.80         107.92
      2149        44.4147        9107.00        9882.02          95.43
      2150        44.4314        7601.00        8459.48          87.18
      2151        44.4481        6913.00        7635.46          83.14
      2152        44.4648        6403.00        7138.55          80.02
      2153        44.4816        6279.00        6810.03          79.24
      2154        44.4983        5999.00        6572.28          77.45
      2155        44.5150        5895.00        6389.68          76.78
      2156        44.5317        5741.00        6244.83          75.77
      2157        44.5484        5669.00        6127.48          75.29
      2158        44.5651        5641.00        6031.00          75.11
      2159        44.5818        5530.00        5950.71          74.36
      2160        44.5985        5491.00        5883.18          74.10
      2161        44.6152        5503.00        5825.99          74.18
      2162        44.6320        5530.00        5777.22          74.36
      2163        44.6487        5529.00        5735.48          74.36
      2164        44.6654        5652.00        5699.76          75.18
      2165        44.6821        5526.00        5669.42          74.34
      2166        44.6988        5581.00        5644.30          74.71
      2167        44.7155        5522.00        5625.13          74.31
      2168        44.7322        5659.00        5614.50          75.23
      2169        44.7489        5488.00        5615.50          74.08
      2170        44.7656        5565.00        5633.35          74.60
      2171        44.7824        5574.00        5670.47          74.66
      2172        44.7991        5613.00        5721.20          74.92
      2173        44.8158        5684.00        5763.11          75.39
      2174        44.8325        5701.00        5760.04          75.50
      2175        44.8492        5714.00        5707.54          75.59
      2176        44.8659        5581.00        5641.82          74.71
      2177        44.8826        5587.00        5592.66          74.75
      2178        44.8993        5442.00        5569.77          73.77
      2179        44.9160        5630.00        5568.95          75.03
      2180        44.9328        5375.00        5574.28          73.31
      2181        44.9495        5588.00        5562.95          74.75
      2182        44.9662        5463.00        5451.68          73.91
      2183        44.9829        5355.00        5413.30          73.18
      2184        44.9996        5405.00        5380.02          73.52
      2185        45.0163        5350.00        5358.22          73.14
      2186        45.0330        5179.00        5342.39          71.97
      2187        45.0497        5385.00        5332.29          73.38
      2188        45.0664        5278.00        5325.56          72.65
      2189        45.0832        5325.00        5281.93          72.97
      2190        45.0999        5267.00        5279.68          72.57
      2191        45.1166        5231.00        5277.97          72.33
      2192        45.1333        5217.00        5277.80          72.23
      2193        45.1500        5135.00        5276.81          71.66
      2194        45.1667        5285.00        5276.06          72.70
      2195        45.1834        5117.00        5275.52          71.53
      2196        45.2001        5183.00        5274.82          71.99
      2197        45.2169        5211.00        5274.69          72.19
      2198        45.2336        5189.00        5274.77          72.03
      2199        45.2503        5105.00        5275.09          71.45
      2200        45.2670        5291.00        5276.13          72.74
      2201        45.2837        5234.00        5277.09          72.35
      2202        45.3004        5053.00        5278.50          71.08
      2203        45.3171        5175.00        5280.57          71.94
      2204        45.3338        5172.00        5283.70          71.92
      2205        45.3505        5272.00        5288.84          72.61
      2206        45.3672        5227.00        5297.88          72.30
      2207        45.3840        5280.00        5314.15          72.66
      2208        45.4007        5301.00        5341.09          72.81
      2209        45.4174        5371.00        5380.67          73.29
      2210        45.4341        5430.00        5429.33          73.69
      2211        45.4508        5385.00        5471.50          73.38
      2212        45.4675        5513.00        5481.17          74.25
      2213        45.4842        5299.00        5453.96          72.79
      2214        45.5009        5339.00        5416.10          73.07
      2215        45.5177        5345.00        5389.57          73.11
      2216        45.5344        5315.00        5382.03          72.90
      2217        45.5511        5398.00        5391.51          73.47
      2218        45.5678        5441.00        5459.00          73.76
      2219        45.5845        5223.00        5468.95          72.27
      2220        45.6012        5379.00        5463.98          73.34
      2221        45.6179        5512.00        5455.92          74.24
      2222        45.6346        5422.00        5458.84          73.63
      2223        45.6513        5346.00        5484.51          73.12
      2224        45.6681        5425.00        5547.19          73.65
      2225        45.6848        5622.00        5664.45          74.98
      2226        45.7015        5694.00        5877.38          75.46
      2227        45.7182        5818.00        6126.67          76.28
      2228        45.7349        6118.00        6378.54          78.22
      2229        45.7516        6249.00        6501.45          79.05
      2230        45.7683        6179.00        6408.94          78.61
      2231        45.7850        6043.00        6305.78          77.74
      2232        45.8018        5735.00        6132.63          75.73
      2233        45.8185        5826.00        6052.13          76.33
      2234        45.8352        5763.00        6069.21          75.91
      2235        45.8519        5961.00        6145.03          77.21
      2236        45.8686        5893.00        6200.41          76.77
      2237        45.8853        5724.00        6166.51          75.66
      2238        45.9020        5748.00        6121.08          75.82
      2239        45.9187        5560.00        6035.22          74.57
      2240        45.9354        5682.00        5992.73          75.38
      2241        45.9521        5747.00        6000.17          75.81
      2242        45.9689        5788.00        6045.35          76.08
      2243        45.9856        5771.00        6100.84          75.97
      2244        46.0023        5769.00        6136.54          75.95
      2245        46.0190        5872.00        6153.79          76.63
      2246        46.0357        6051.00        6179.13          77.79
      2247        46.0524        6147.00        6231.96          78.40
      2248        46.0691        6463.00        6320.38          80.39
      2249        46.0858        6378.00        6444.70          79.86
      2250        46.1026        6566.00        6597.49          81.03
      2251        46.1193        6885.00        6765.46          82.98
      2252        46.1360        6998.00        6947.05          83.65
      2253        46.1527        7351.00        7168.79          85.74
      2254        46.1694        8031.00        7479.80          89.62
      2255        46.1861        8751.00        7961.14          93.55
      2256        46.2028        9589.00        8767.14          97.92
      2257        46.2195       11310.00       10181.20         106.35
      2258        46.2362       13498.00       12610.90         116.18
      2259        46.2530       16749.00       16432.30         129.42
      2260        46.2697       21244.00       21646.70         145.75
      2261        46.2864       27034.00       27302.40         164.42
      2262        46.3031       33196.00       30834.40         182.20
      2263        46.3198       35695.00       29792.10         188.93
      2264        46.3365       31399.00       25642.10         177.20
      2265        46.3532       24511.00       21609.80         156.56
      2266        46.3699       20324.00       19471.60         142.56
      2267        46.3866       19839.00       19656.40         140.85
      2268        46.4033       22440.00       21730.70         149.80
      2269        46.4201       26554.00       24560.60         162.95
      2270        46.4368       30794.00       26966.80         175.48
      2271        46.4535       33050.00       29671.00         181.80
      2272        46.4702       34621.00       34711.50         186.07
      2273        46.4869       39001.00       42714.50         197.49
      2274        46.5036       46204.00       51369.60         214.95
      2275        46.5203       53206.00       54975.10         230.66
      2276        46.5370       53906.00       49900.50         232.18
      2277        46.5537       46916.00       40437.20         216.60
      2278        46.5705       35586.00       32278.00         188.64
      2279        46.5872       27458.00       28020.10         165.71
      2280        46.6039       24744.00       27850.50         157.30
      2281        46.6206       26052.00       30225.50         161.41
      2282        46.6373       28571.00       31935.60         169.03
      2283        46.6540       30096.00       29816.40         173.48
      2284        46.6707       26837.00       24547.70         163.82
      2285        46.6874       20854.00       18906.40         144.41
      2286        46.7042       14665.00       14418.70         121.10
      2287        46.7209       10732.00       11389.60         103.60
      2288        46.7376        8773.00        9543.37          93.66
      2289        46.7543        7742.00        8462.46          87.99
      2290        46.7710        7101.00        7804.50          84.27
      2291        46.7877        6670.00        7366.47          81.67
      2292        46.8044        6388.00        7047.46          79.93
      2293        46.8211        6051.00        6800.94          77.79
      2294        46.8378        6068.00        6603.79          77.90
      2295        46.8546        6096.00        6442.84          78.08
      2296        46.8713        5923.00        6309.48          76.96
      2297        46.8880        5679.00        6197.75          75.36
      2298        46.9047        5490.00        6103.01          74.09
      2299        46.9214        5456.00        6022.03          73.86
      2300        46.9381        5383.00        5952.29          73.37
      2301        46.9548        5440.00        5892.02          73.76
      2302        46.9715        5482.00        5839.82          74.04
      2303        46.9882        5342.00        5800.05          73.09
      2304        47.0050        5411.00        5761.72          73.56
      2305        47.0217        5251.00        5729.59          72.46
      2306        47.0384        5254.00        5703.32          72.48
      2307        47.0551        5097.00        5632.19          71.39
      2308        47.0718        5411.00        5619.02          73.56
      2309        47.0885        5255.00        5610.46          72.49
      2310        47.1052        5277.00        5608.18          72.64
      2311        47.1219        5253.00        5605.87          72.48
      2312        47.1386        5262.00        5604.05          72.54
      2313        47.1554        5255.00        5600.37          72.49
      2314        47.1721        5267.00        5567.47          72.57
      2315        47.1888        5172.00        5556.28          71.92
      2316        47.2055        5276.00        5541.38          72.64
      2317        47.2222        5223.00        5524.71          72.27
      2318        47.2389        5207.00        5507.96          72.16
      2319        47.2556        5287.00        5491.97          72.71
      2320        47.2723        5244.00        5378.92          72.42
      2321        47.2890        5151.00        5367.84          71.77
      2322        47.3058        5066.00        5355.98          71.18
      2323        47.3225        5138.00        5343.43          71.68
      2324        47.3392        5118.00        5330.85          71.54
      2325        47.3559        5252.00        5319.06          72.47
      2326        47.3726        5148.00        5308.67          71.75
      2327        47.3893        5319.00        5251.06          72.93
      2328        47.4060        5253.00        5249.37          72.48
      2329        47.4227        5138.00        5246.84          71.68
      2330        47.4394        5205.00        5246.22          72.15
      2331        47.4562        5279.00        5247.45          72.66
      2332        47.4729        5363.00        5250.51          73.23
      2333        47.4896        5374.00        5255.44          73.31
      2334        47.5063        5439.00        5262.41          73.75
      2335        47.5230        5383.00        5271.77          73.37
      2336        47.5397        5533.00        5285.48          74.38
      2337        47.5564        5428.00        5301.80          73.68
      2338        47.5731        5405.00        5323.93          73.52
      2339        47.5898        5389.00        5355.64          73.41
      2340        47.6066        5589.00        5405.38          74.76
      2341        47.6233        5678.00        5490.86          75.35
      2342        47.6400        5949.00        5643.05          77.13
      2343        47.6567        6041.00        5903.31          77.72
      2344        47.6734        6401.00        6303.44          80.01
      2345        47.6901        6738.00        6828.06          82.09
      2346        47.7068        7303.00        7350.81          85.46
      2347        47.7235        7663.00        7591.95          87.54
      2348        47.7403        7604.00        7372.01          87.20
      2349        47.7570        7202.00        6907.37          84.86
      2350        47.7737        6401.00        6492.28          80.01
      2351        47.7904        6123.00        6264.66          78.25
      2352        47.8071        6122.00        6243.54          78.24
      2353        47.8238        6296.00        6366.34          79.35
      2354        47.8405        6366.00        6490.64          79.79
      2355        47.8572        6333.00        6441.97          79.58
      2356        47.8739        6298.00        6205.26          79.36
      2357        47.8907        6093.00        5917.55          78.06
      2358        47.9074        5876.00        5675.86          76.66
      2359        47.9241        5475.00        5506.86          73.99
      2360        47.9408        5599.00        5401.88          74.83
      2361        47.9575        5343.00        5340.43          73.10
      2362        47.9742        5421.00        5303.86          73.63
      2363        47.9909        5440.00        5280.25          73.76
      2364        48.0076        5489.00        5263.48          74.09
      2365        48.0243        5338.00        5250.77          73.06
      2366        48.0411        5373.00        5240.76          73.30
      2367        48.0578        5347.00        5232.72          73.12
      2368        48.0745        5319.00        5226.15          72.93
      2369        48.0912        5390.00        5220.73          73.42
      2370        48.1079        5258.00        5216.22          72.51
      2371        48.1246        5246.00        5212.44          72.43
      2372        48.1413        5198.00        5209.26          72.10
      2373        48.1580        5265.00        5206.58          72.56
      2374        48.1747        5271.00        5204.34          72.60
      2375        48.1915        5227.00        5202.47          72.30
      2376        48.2082        5214.00        5200.93          72.21
      2377        48.2249        5068.00        5199.69          71.19
      2378        48.2416        5253.00        5198.73          72.48
      2379        48.2583        5040.00        5198.03          70.99
      2380        48.2750        4999.00        5197.57          70.70
      2381        48.2917        4938.00        5197.36          70.27
      2382        48.3084        5067.00        5197.39          71.18
      2383        48.3252        5073.00        5197.67          71.22
      2384        48.3419        4979.00        5198.21          70.56
      2385        48.3586        4996.00        5199.02          70.68
      2386        48.3753        4997.00        5200.12          70.69
      2387        48.3920        4941.00        5201.54          70.29
      2388        48.4087        5116.00        5203.31          71.53
      2389        48.4254        4934.00        5205.47          70.24
      2390        48.4421        5047.00        5208.08          71.04
      2391        48.4588        4942.00        5211.21          70.30
      2392        48.4755        5120.00        5209.91          71.55
      2393        48.4923        5000.00        5214.57          70.71
      2394        48.5090        5232.00        5220.13          72.33
      2395        48.5257        5034.00        5226.85          70.95
      2396        48.5424        5172.00        5235.17          71.92
      2397        48.5591        5064.00        5245.60          71.16
      2398        48.5758        5071.00        5259.69          71.21
      2399        48.5925        5068.00        5279.02          71.19
      2400        48.6092        5195.00        5303.85          72.08
      2401        48.6259        5101.00        5342.89          71.42
      2402        48.6427        5215.00        5398.46          72.21
      2403        48.6594        5381.00        5476.25          73.36
      2404        48.6761        5473.00        5582.17          73.98
      2405        48.6928        5626.00        5721.22          75.01
      2406        48.7095        5647.00        5896.06          75.15
      2407        48.7262        6125.00        6105.58          78.26
      2408        48.7429        6306.00        6343.03          79.41
      2409        48.7596        6307.00        6595.10          79.42
      2410        48.7763        7027.00        6839.95          83.83
      2411        48.7931        6963.00        7048.22          83.44
      2412        48.8098        7045.00        7188.49          83.93
      2413        48.8265        6995.00        7241.45          83.64
      2414        48.8432        6918.00        7212.29          83.17
      2415        48.8599        6810.00        7126.46          82.52
      2416        48.8766        6715.00        7013.78          81.95
      2417        48.8933        6856.00        6895.32          82.80
      2418        48.9100        6736.00        6779.17          82.07
      2419        48.9268        6464.00        6661.39          80.40
      2420        48.9435        6439.00        6532.14          80.24
      2421        48.9602        6216.00        6384.99          78.84
      2422        48.9769        6093.00        6222.63          78.06
      2423        48.9936        5914.00        6057.72          76.90
      2424        49.0103        5590.00        5896.62          74.77
      2425        49.0270        5634.00        5749.89          75.06
      2426        49.0437        5534.00        5622.33          74.39
      2427        49.0604        5363.00        5515.93          73.23
      2428        49.0772        5362.00        5430.51          73.23
      2429        49.0939        5060.00        5364.31          71.13
      2430        49.1106        5189.00        5314.49          72.03
      2431        49.1273        5254.00        5278.99          72.48
      2432        49.1440        5042.00        5252.32          71.01
      2433        49.1607        5152.00        5232.86          71.78
      2434        49.1774        4940.00        5218.43          70.29
      2435        49.1941        5012.00        5207.43          70.80
      2436        49.2108        5035.00        5198.76          70.96
      2437        49.2276        4900.00        5191.71          70.00
      2438        49.2443        4980.00        5185.81          70.57
      2439        49.2610        4959.00        5180.78          70.42
      2440        49.2777        5011.00        5176.43          70.79
      2441        49.2944        5016.00        5172.64          70.82
      2442        49.3111        4997.00        5169.34          70.69
      2443        49.3278        4897.00        5166.46          69.98
      2444        49.3445        4905.00        5163.98          70.04
      2445        49.3612        4931.00        5161.86          70.22
      2446        49.3780        4827.00        5160.08          69.48
      2447        49.3947        4870.00        5158.63          69.79
      2448        49.4114        4890.00        5158.66          69.93
      2449        49.4281        4948.00        5157.95          70.34
      2450        49.4448        4968.00        5157.62          70.48
      2451        49.4615        4927.00        5157.71          70.19
      2452        49.4782        4934.00        5158.27          70.24
      2453        49.4949        5069.00        5159.38          71.20
      2454        49.5117        4945.00        5161.15          70.32
      2455        49.5284        5053.00        5163.75          71.08
      2456        49.5451        4991.00        5167.97          70.65
      2457        49.5618        4898.00        5173.06          69.99
      2458        49.5785        5077.00        5180.10          71.25
      2459        49.5952        5057.00        5190.13          71.11
      2460        49.6119        5037.00        5205.37          70.97
      2461        49.6286        5039.00        5230.61          70.99
      2462        49.6453        5098.00        5275.31          71.40
      2463        49.6620        5155.00        5354.43          71.80
      2464        49.6788        5318.00        5485.04          72.92
      2465        49.6955        5433.00        5675.29          73.71
      2466        49.7122        5667.00        5905.85          75.28
      2467        49.7289        5884.00        6100.47          76.71
      2468        49.7456        5972.00        6135.77          77.28
      2469        49.7623        6027.00        5990.44          77.63
      2470        49.7790        5585.00        5786.72          74.73
      2471        49.7957        5598.00        5625.12          74.82
      2472        49.8125        5566.00        5547.04          74.61
      2473        49.8292        5413.00        5552.57          73.57
      2474        49.8459        5383.00        5613.58          73.37
      2475        49.8626        5506.00        5672.19          74.20
      2476        49.8793        5568.00        5657.01          74.62
      2477        49.8960        5369.00        5560.76          73.27
      2478        49.9127        5366.00        5441.21          73.25
      2479        49.9294        5335.00        5339.13          73.04
      2480        49.9461        4997.00        5267.61          70.69
      2481        49.9628        5047.00        5223.82          71.04
      2482        49.9796        5259.00        5199.60          72.52
      2483        49.9963        5073.00        5187.36          71.22
      2484        50.0130        5010.00        5182.49          70.78
      2485        50.0297        4969.00        5183.41          70.49
      2486        50.0464        5087.00        5191.40          71.32
      2487        50.0631        5089.00        5210.75          71.34
      2488        50.0798        5026.00        5248.81          70.89
      2489        50.0965        5325.00        5313.75          72.97
      2490        50.1132        5206.00        5409.03          72.15
      2491        50.1300        5296.00        5523.62          72.77
      2492        50.1467        5448.00        5616.96          73.81
      2493        50.1634        5430.00        5627.78          73.69
      2494        50.1801        5251.00        5550.73          72.46
      2495        50.1968        5417.00        5448.01          73.60
      2496        50.2135        5205.00        5369.27          72.15
      2497        50.2302        5209.00        5330.62          72.17
      2498        50.2469        5148.00        5337.50          71.75
      2499        50.2637        5306.00        5373.37          72.84
      2500        50.2804        5310.00        5409.85          72.87
      2501        50.2971        5324.00        5411.68          72.97
      2502        50.3138        5288.00        5374.78          72.72
      2503        50.3305        5237.00        5327.74          72.37
      2504        50.3472        5177.00        5291.66          71.95
      2505        50.3639        5298.00        5271.23          72.79
      2506        50.3806        5264.00        5267.45          72.55
      2507        50.3974        5184.00        5274.84          72.00
      2508        50.4141        5233.00        5291.19          72.34
      2509        50.4308        5175.00        5319.19          71.94
      2510        50.4475        5271.00        5367.00          72.60
      2511        50.4642        5231.00        5444.65          72.33
      2512        50.4809        5398.00        5555.59          73.47
      2513        50.4976        5652.00        5681.28          75.18
      2514        50.5143        5618.00        5772.73          74.95
      2515        50.5310        5594.00        5758.95          74.79
      2516        50.5477        5411.00        5650.25          73.56
      2517        50.5645        5236.00        5521.91          72.36
      2518        50.5812        5324.00        5425.31          72.97
      2519        50.5979        5234.00        5378.40          72.35
      2520        50.6146        5212.00        5378.75          72.19
      2521        50.6313        5440.00        5407.69          73.76
      2522        50.6480        5314.00        5432.57          72.90
      2523        50.6647        5180.00        5412.23          71.97
      2524        50.6814        5040.00        5347.06          70.99
      2525        50.6982        5042.00        5271.32          71.01
      2526        50.7149        5083.00        5207.95          71.30
      2527        50.7316        5031.00        5163.13          70.93
      2528        50.7483        5090.00        5134.59          71.34
      2529        50.7650        5002.00        5117.25          70.72
      2530        50.7817        5094.00        5106.45          71.37
      2531        50.7984        4916.00        5099.17          70.11
      2532        50.8151        4966.00        5093.80          70.47
      2533        50.8318        4946.00        5089.55          70.33
      2534        50.8485        4980.00        5086.05          70.57
      2535        50.8653        4951.00        5086.84          70.36
      2536        50.8820        4866.00        5084.45          69.76
      2537        50.8987        4930.00        5082.39          70.21
      2538        50.9154        4987.00        5079.50          70.62
      2539        50.9321        4900.00        5079.39          70.00
      2540        50.9488        4854.00        5078.09          69.67
      2541        50.9655        4858.00        5076.94          69.70
      2542        50.9822        4834.00        5075.92          69.53
      2543        50.9989        5040.00        5079.87          70.99
      2544        51.0157        4960.00        5079.30          70.43
      2545        51.0324        4798.00        5078.84          69.27
      2546        51.0491        4804.00        5077.95          69.31
      2547        51.0658        5086.00        5078.44          71.32
      2548        51.0825        4944.00        5078.37          70.31
      2549        51.0992        4968.00        5083.59          70.48
      2550        51.1159        4976.00        5083.99          70.54
      2551        51.1326        4846.00        5085.96          69.61
      2552        51.1493        4987.00        5086.72          70.62
      2553        51.1661        4877.00        5092.17          69.84
      2554        51.1828        4939.00        5093.50          70.28
      2555        51.1995        5006.00        5095.06          70.75
      2556        51.2162        4955.00        5096.87          70.39
      2557        51.2329        4989.00        5101.51          70.63
      2558        51.2496        4931.00        5104.05          70.22
      2559        51.2663        4954.00        5106.99          70.38
      2560        51.2830        5116.00        5109.09          71.53
      2561        51.2997        5114.00        5115.26          71.51
      2562        51.3165        5000.00        5122.10          70.71
      2563        51.3332        5054.00        5127.63          71.09
      2564        51.3499        5027.00        5147.22          70.90
      2565        51.3666        5125.00        5155.35          71.59
      2566        51.3833        5038.00        5164.88          70.98
      2567        51.4000        5008.00        5176.16          70.77
      2568        51.4167        5087.00        5189.02          71.32
      2569        51.4334        5126.00        5205.41          71.60
      2570        51.4502        5100.00        5226.77          71.41
      2571        51.4669        5257.00        5252.75          72.51
      2572        51.4836        5183.00        5316.59          71.99
      2573        51.5003        5380.00        5369.44          73.35
      2574        51.5170        5470.00        5453.16          73.96
      2575        51.5337        5558.00        5591.38          74.55
      2576        51.5504        5829.00        5813.02          76.35
      2577        51.5671        6061.00        6138.52          77.85
      2578        51.5838        6714.00        6553.85          81.94
      2579        51.6006        7290.00        6967.02          85.38
      2580        51.6173        7688.00        7205.55          87.68
      2581        51.6340        7686.00        7167.30          87.67
      2582        51.6507        7259.00        7033.02          85.20
      2583        51.6674        7007.00        6979.25          83.71
      2584        51.6841        6838.00        7046.60          82.69
      2585        51.7008        7137.00        7212.44          84.48
      2586        51.7175        7671.00        7494.75          87.58
      2587        51.7342        8240.00        7872.93          90.77
      2588        51.7510        8948.00        8174.40          94.59
      2589        51.7677        8965.00        8221.61          94.68
      2590        51.7844        8694.00        8147.43          93.24
      2591        51.8011        8471.00        8219.88          92.04
      2592        51.8178        8629.00        8530.70          92.89
      2593        51.8345        9042.00        8951.83          95.09
      2594        51.8512        9710.00        9231.41          98.54
      2595        51.8679       10010.00        9291.82         100.05
      2596        51.8846        9885.00        9305.11          99.42
      2597        51.9014        9744.00        9315.59          98.71
      2598        51.9181        9584.00        9182.59          97.90
      2599        51.9348        9410.00        8851.75          97.01
      2600        51.9515        9119.00        8515.69          95.49
      2601        51.9682        8889.00        8346.65          94.28
      2602        51.9849        8698.00        8336.85          93.26
      2603        52.0016        8881.00        8461.92          94.24
      2604        52.0183        9354.00        8855.86          96.72
      2605        52.0350        9692.00        9658.20          98.45
      2606        52.0518       10831.00       10818.50         104.07
      2607        52.0685       11954.00       12069.10         109.33
      2608        52.0852       13238.00       13023.30         115.06
      2609        52.1019       13798.00       13186.80         117.46
      2610        52.1186       13174.00       12387.30         114.78
      2611        52.1353       11885.00       11293.50         109.02
      2612        52.1520       10939.00       10695.00         104.59
      2613        52.1687       11039.00       11041.20         105.07
      2614        52.1854       11833.00       12488.40         108.78
      2615        52.2022       13976.00       14859.80         118.22
      2616        52.2189       16636.00       17453.30         128.98
      2617        52.2356       18687.00       18874.80         136.70
      2618        52.2523       18961.00       17931.70         137.70
      2619        52.2690       16201.00       15339.00         127.28
      2620        52.2857       12734.00       12648.90         112.85
      2621        52.3024       10276.00       10733.30         101.37
      2622        52.3191        9121.00        9828.90          95.50
      2623        52.3358        8816.00        9821.71          93.89
      2624        52.3526        9392.00       10363.80          96.91
      2625        52.3693       10272.00       10861.50         101.35
      2626        52.3860       10712.00       10639.60         103.50
      2627        52.4027        9685.00        9655.21          98.41
      2628        52.4194        8580.00        8444.44          92.63
      2629        52.4361        7252.00        7405.92          85.16
      2630        52.4528        6239.00        6660.62          78.99
      2631        52.4695        5821.00        6184.52          76.30
      2632        52.4862        5577.00        5896.08          74.68
      2633        52.5030        5461.00        5717.30          73.90
      2634        52.5197        5235.00        5592.89          72.35
      2635        52.5364        5170.00        5506.12          71.90
      2636        52.5531        5190.00        5439.42          72.04
      2637        52.5698        5010.00        5386.40          70.78
      2638        52.5865        5070.00        5342.63          71.20
      2639        52.6032        5041.00        5307.01          71.00
      2640        52.6199        5029.00        5272.20          70.92
      2641        52.6367        5079.00        5246.88          71.27
      2642        52.6534        5033.00        5225.08          70.94
      2643        52.6701        4950.00        5204.73          70.36
      2644        52.6868        4880.00        5183.84          69.86
      2645        52.7035        4919.00        5169.55          70.14
      2646        52.7202        4889.00        5156.74          69.92
      2647        52.7369        4821.00        5145.29          69.43
      2648        52.7536        4986.00        5132.58          70.61
      2649        52.7703        4963.00        5123.41          70.45
      2650        52.7871        4918.00        5115.10          70.13
      2651        52.8038        5007.00        5107.56          70.76
      2652        52.8205        4888.00        5098.49          69.91
      2653        52.8372        5087.00        5090.17          71.32
      2654        52.8539        4889.00        5084.62          69.92
      2655        52.8706        4834.00        5066.86          69.53
      2656        52.8873        4994.00        5062.60          70.67
      2657        52.9040        4915.00        5060.25          70.11
      2658        52.9207        4903.00        5056.67          70.02
      2659        52.9375        4896.00        5053.36          69.97
      2660        52.9542        4795.00        5050.29          69.25
      2661        52.9709        4962.00        5047.44          70.44
      2662        52.9876        4811.00        5043.80          69.36
      2663        53.0043        4911.00        5013.28          70.08
      2664        53.0210        4811.00        5012.22          69.36
      2665        53.0377        4772.00        5012.03          69.08
      2666        53.0544        4943.00        5011.19          70.31
      2667        53.0711        4910.00        5010.44          70.07
      2668        53.0879        4857.00        5009.79          69.69
      2669        53.1046        4945.00        5009.22          70.32
      2670        53.1213        4840.00        5008.69          69.57
      2671        53.1380        4908.00        5008.33          70.06
      2672        53.1547        4890.00        4997.60          69.93
      2673        53.1714        4760.00        4998.24          68.99
      2674        53.1881        4842.00        4998.68          69.58
      2675        53.2048        4975.00        4999.26          70.53
      2676        53.2215        4841.00        5000.02          69.58
      2677        53.2383        4961.00        5001.01          70.43
      2678        53.2550        4954.00        5002.28          70.38
      2679        53.2717        4935.00        5004.06          70.25
      2680        53.2884        4924.00        5006.50          70.17
      2681        53.3051        4962.00        5010.08          70.44
      2682        53.3218        4964.00        5032.04          70.46
      2683        53.3385        4873.00        5039.77          69.81
      2684        53.3552        4964.00        5050.52          70.46
      2685        53.3719        4903.00        5065.49          70.02
      2686        53.3887        4996.00        5086.23          70.68
      2687        53.4054        5109.00        5114.25          71.48
      2688        53.4221        5226.00        5150.55          72.29
      2689        53.4388        5226.00        5194.23          72.29
      2690        53.4555        5244.00        5240.96          72.42
      2691        53.4722        5252.00        5290.33          72.47
      2692        53.4889        5391.00        5317.92          73.42
      2693        53.5056        5400.00        5334.27          73.48
      2694        53.5224        5253.00        5345.37          72.48
      2695        53.5391        5288.00        5355.84          72.72
      2696        53.5558        5433.00        5371.72          73.71
      2697        53.5725        5551.00        5409.17          74.50
      2698        53.5892        5443.00        5466.59          73.78
      2699        53.6059        5664.00        5560.06          75.26
      2700        53.6226        5680.00        5688.99          75.37
      2701        53.6393        5993.00        5834.14          77.41
      2702        53.6560        6126.00        5940.07          78.27
      2703        53.6727        6282.00        5929.18          79.26
      2704        53.6895        6188.00        5803.32          78.66
      2705        53.7062        6051.00        5645.72          77.79
      2706        53.7229        5776.00        5523.06          76.00
      2707        53.7396        5788.00        5453.37          76.08
      2708        53.7563        5685.00        5442.28          75.40
      2709        53.7730        5614.00        5478.11          74.93
      2710        53.7897        5706.00        5535.11          75.54
      2711        53.8064        5752.00        5570.14          75.84
      2712        53.8232        6009.00        5550.57          77.52
      2713        53.8399        5875.00        5497.90          76.65
      2714        53.8566        5772.00        5453.50          75.97
      2715        53.8733        5727.00        5439.95          75.68
      2716        53.8900        5576.00        5462.68          74.67
      2717        53.9067        5769.00        5515.98          75.95
      2718        53.9234        5691.00        5585.55          75.44
      2719        53.9401        5726.00        5658.98          75.67
      2720        53.9568        6020.00        5752.53          77.59
      2721        53.9736        6427.00        5916.17          80.17
      2722        53.9903        6669.00        6227.15          81.66
      2723        54.0070        7389.00        6793.98          85.96
      2724        54.0237        8231.00        7736.60          90.72
      2725        54.0404        9646.00        9117.97          98.21
      2726        54.0571       11308.00       10825.40         106.34
      2727        54.0738       13451.00       12373.80         115.98
      2728        54.0905       14710.00       12886.10         121.29
      2729        54.1073       14245.00       11996.10         119.35
      2730        54.1240       12111.00       10447.50         110.05
      2731        54.1407        9845.00        9056.24          99.22
      2732        54.1574        8571.00        8198.09          92.58
      2733        54.1741        8036.00        7956.71          89.64
      2734        54.1908        8470.00        8250.08          92.03
      2735        54.2075        9255.00        8863.83          96.20
      2736        54.2242       10110.00        9408.15         100.55
      2737        54.2409       10258.00        9428.98         101.28
      2738        54.2576        9992.00        8939.90          99.96
      2739        54.2744        9129.00        8401.45          95.55
      2740        54.2911        8381.00        8152.38          91.55
      2741        54.3078        8074.00        8263.65          89.86
      2742        54.3245        8368.00        8563.85          91.48
      2743        54.3412        8582.00        8661.74          92.64
      2744        54.3579        8418.00        8272.34          91.75
      2745        54.3746        8162.00        7587.40          90.34
      2746        54.3913        7431.00        6937.47          86.20
      2747        54.4081        6613.00        6494.77          81.32
      2748        54.4248        6331.00        6305.48          79.57
      2749        54.4415        6196.00        6343.78          78.71
      2750        54.4582        6450.00        6536.56          80.31
      2751        54.4749        6511.00        6738.97          80.69
      2752        54.4916        6546.00        6750.43          80.91
      2753        54.5083        6495.00        6500.43          80.59
      2754        54.5250        6295.00        6133.89          79.34
      2755        54.5417        5943.00        5794.87          77.09
      2756        54.5584        5542.00        5539.40          74.44
      2757        54.5752        5064.00        5369.32          71.16
      2758        54.5919        4966.00        5263.18          70.47
      2759        54.6086        4997.00        5198.56          70.69
      2760        54.6253        4968.00        5156.66          70.48
      2761        54.6420        4821.00        5126.97          69.43
      2762        54.6587        4920.00        5106.09          70.14
      2763        54.6754        4938.00        5087.94          70.27
      2764        54.6921        4726.00        5072.97          68.75
      2765        54.7088        4742.00        5060.09          68.86
      2766        54.7256        4858.00        5049.40          69.70
      2767        54.7423        4960.00        5040.20          70.43
      2768        54.7590        4866.00        5032.28          69.76
      2769        54.7757        4862.00        5025.38          69.73
      2770        54.7924        4832.00        5019.40          69.51
      2771        54.8091        4924.00        5015.17          70.17
      2772        54.8258        4772.00        5010.89          69.08
      2773        54.8425        4881.00        5007.46          69.86
      2774        54.8592        4912.00        5004.76          70.09
      2775        54.8760        4903.00        4986.97          70.02
      2776        54.8927        4828.00        4987.10          69.48
      2777        54.9094        4960.00        4988.28          70.43
      2778        54.9261        4893.00        4990.49          69.95
      2779        54.9428        4850.00        4993.61          69.64
      2780        54.9595        5003.00        4997.41          70.73
      2781        54.9762        4971.00        5001.54          70.51
      2782        54.9929        4938.00        5005.50          70.27
      2783        55.0097        4814.00        5000.32          69.38
      2784        55.0264        4992.00        5002.51          70.65
      2785        55.0431        5040.00        5003.02          70.99
      2786        55.0598        4784.00        5001.94          69.17
      2787        55.0765        4911.00        4999.78          70.08
      2788        55.0932        4978.00        4997.13          70.55
      2789        55.1099        4897.00        4994.53          69.98
      2790        55.1266        4908.00        4985.64          70.06
      2791        55.1433        4827.00        4984.13          69.48
      2792        55.1601        4909.00        4982.96          70.06
      2793        55.1768        4860.00        4982.06          69.71
      2794        55.1935        4822.00        4981.32          69.44
      2795        55.2102        4819.00        4980.83          69.42
      2796        55.2269        4790.00        4980.95          69.21
      2797        55.2436        4689.00        4982.15          68.48
      2798        55.2603        4819.00        4985.14          69.42
      2799        55.2770        4975.00        4987.73          70.53
      2800        55.2937        4776.00        4998.54          69.11
      2801        55.3105        4914.00        5018.03          70.10
      2802        55.3272        4842.00        5053.13          69.58
      2803        55.3439        4790.00        5121.55          69.21
      2804        55.3606        5061.00        5220.35          71.14
      2805        55.3773        5190.00        5361.70          72.04
      2806        55.3940        5294.00        5533.91          72.76
      2807        55.4107        5461.00        5692.40          73.90
      2808        55.4274        5372.00        5752.68          73.29
      2809        55.4441        5405.00        5669.34          73.52
      2810        55.4609        5343.00        5509.83          73.10
      2811        55.4776        5241.00        5359.84          72.39
      2812        55.4943        5131.00        5264.82          71.63
      2813        55.5110        5037.00        5228.28          70.97
      2814        55.5277        4994.00        5246.88          70.67
      2815        55.5444        5054.00        5301.70          71.09
      2816        55.5611        5069.00        5359.55          71.20
      2817        55.5778        5081.00        5372.00          71.28
      2818        55.5946        5104.00        5316.67          71.44
      2819        55.6113        5202.00        5226.83          72.12
      2820        55.6280        5060.00        5141.10          71.13
      2821        55.6447        4919.00        5075.84          70.14
      2822        55.6614        4855.00        5035.60          69.68
      2823        55.6781        4918.00        5009.95          70.13
      2824        55.6948        4853.00        4995.56          69.66
      2825        55.7115        4826.00        4987.66          69.47
      2826        55.7282        4709.00        4983.38          68.62
      2827        55.7449        4918.00        4981.31          70.13
      2828        55.7617        4837.00        4980.79          69.55
      2829        55.7784        4801.00        4981.56          69.29
      2830        55.7951        4746.00        4983.52          68.89
      2831        55.8118        4801.00        4988.10          69.29
      2832        55.8285        4840.00        4992.55          69.57
      2833        55.8452        4878.00        4998.40          69.84
      2834        55.8619        4838.00        5005.88          69.56
      2835        55.8786        4718.00        5015.33          68.69
      2836        55.8953        4802.00        5027.22          69.30
      2837        55.9121        4891.00        5042.24          69.94
      2838        55.9288        4956.00        5061.41          70.40
      2839        55.9455        5006.00        5086.33          70.75
      2840        55.9622        5067.00        5120.02          71.18
      2841        55.9789        5128.00        5168.64          71.61
      2842        55.9956        5304.00        5245.30          72.83
      2843        56.0123        5448.00        5375.18          73.81
      2844        56.0290        5749.00        5599.18          75.82
      2845        56.0458        6205.00        5964.14          78.77
      2846        56.0625        6549.00        6502.29          80.93
      2847        56.0792        6769.00        7184.44          82.27
      2848        56.0959        7175.00        7851.29          84.71
      2849        56.1126        7568.00        8169.36          86.99
      2850        56.1293        7924.00        7911.56          89.02
      2851        56.1460        7640.00        7301.11          87.41
      2852        56.1627        7148.00        6688.20          84.55
      2853        56.1794        6772.00        6259.12          82.29
      2854        56.1962        6293.00        6070.70          79.33
      2855        56.2129        6190.00        6107.43          78.68
      2856        56.2296        6268.00        6313.74          79.17
      2857        56.2463        6193.00        6574.06          78.70
      2858        56.2630        6382.00        6702.70          79.89
      2859        56.2797        6669.00        6563.39          81.66
      2860        56.2964        6540.00        6246.35          80.87
      2861        56.3131        6398.00        5922.62          79.99
      2862        56.3298        6043.00        5688.92          77.74
      2863        56.3466        5779.00        5576.73          76.02
      2864        56.3633        5593.00        5591.61          74.79
      2865        56.3800        5733.00        5727.48          75.72
      2866        56.3967        5956.00        5959.66          77.18
      2867        56.4134        6031.00        6227.62          77.66
      2868        56.4301        6342.00        6405.23          79.64
      2869        56.4468        6312.00        6366.56          79.45
      2870        56.4635        6327.00        6148.95          79.54
      2871        56.4802        6053.00        5897.49          77.80
      2872        56.4970        5684.00        5702.37          75.39
      2873        56.5137        5634.00        5596.18          75.06
      2874        56.5304        5665.00        5579.18          75.27
      2875        56.5471        5535.00        5633.91          74.40
      2876        56.5638        5660.00        5724.69          75.23
      2877        56.5805        5569.00        5787.20          74.63
      2878        56.5972        5787.00        5751.32          76.07
      2879        56.6139        5650.00        5621.78          75.17
      2880        56.6306        5610.00        5466.72          74.90
      2881        56.6474        5452.00        5332.74          73.84
      2882        56.6641        5322.00        5233.85          72.95
      2883        56.6808        5350.00        5167.66          73.14
      2884        56.6975        5217.00        5126.33          72.23
      2885        56.7142        5026.00        5103.41          70.89
      2886        56.7309        5270.00        5096.85          72.59
      2887        56.7476        5242.00        5108.27          72.40
      2888        56.7643        5195.00        5139.89          72.08
      2889        56.7810        5284.00        5189.78          72.69
      2890        56.7978        5330.00        5245.05          73.01
      2891        56.8145        5346.00        5275.58          73.12
      2892        56.8312        5362.00        5253.16          73.23
      2893        56.8479        5168.00        5191.12          71.89
      2894        56.8646        5230.00        5124.38          72.32
      2895        56.8813        5277.00        5074.22          72.64
      2896        56.8980        5306.00        5047.93          72.84
      2897        56.9147        5215.00        5038.68          72.21
      2898        56.9314        5344.00        5055.72          73.10
      2899        56.9482        5045.00        5083.18          71.03
      2900        56.9649        5326.00        5105.65          72.98
      2901        56.9816        5190.00        5106.97          72.04
      2902        56.9983        5167.00        5091.00          71.88
      2903        57.0150        5007.00        5078.76          70.76
      2904        57.0317        5183.00        5088.56          71.99
      2905        57.0484        5246.00        5131.22          72.43
      2906        57.0651        5213.00        5205.72          72.20
      2907        57.0818        5204.00        5307.36          72.14
      2908        57.0986        5281.00        5397.20          72.67
      2909        57.1153        5260.00        5418.61          72.53
      2910        57.1320        5126.00        5353.23          71.60
      2911        57.1487        4959.00        5248.70          70.42
      2912        57.1654        5174.00        5154.06          71.93
      2913        57.1821        5144.00        5091.83          71.72
      2914        57.1988        5104.00        5067.42          71.44
      2915        57.2155        5013.00        5077.18          70.80
      2916        57.2323        5182.00        5108.25          71.99
      2917        57.2490        5037.00        5147.54          70.97
      2918        57.2657        5125.00        5163.06          71.59
      2919        57.2824        5097.00        5135.05          71.39
      2920        57.2991        5114.00        5080.29          71.51
      2921        57.3158        4975.00        5028.78          70.53
      2922        57.3325        5050.00        4984.32          71.06
      2923        57.3492        5068.00        4953.70          71.19
      2924        57.3659        5010.00        4934.58          70.78
      2925        57.3827        5039.00        4921.86          70.99
      2926        57.3994        4978.00        4915.16          70.55
      2927        57.4161        5004.00        4911.20          70.74
      2928        57.4328        5028.00        4908.43          70.91
      2929        57.4495        4888.00        4906.54          69.91
      2930        57.4662        4979.00        4905.30          70.56
      2931        57.4829        5035.00        4906.83          70.96
      2932        57.4996        4885.00        4906.61          69.89
      2933        57.5164        5086.00        4906.77          71.32
      2934        57.5331        4996.00        4907.30          70.68
      2935        57.5498        5056.00        4908.17          71.11
      2936        57.5665        4854.00        4909.39          69.67
      2937        57.5832        4876.00        4910.98          69.83
      2938        57.5999        4872.00        4912.97          69.80
      2939        57.6166        4873.00        4914.72          69.81
      2940        57.6333        4907.00        4917.72          70.05
      2941        57.6500        5041.00        4921.40          71.00
      2942        57.6667        5099.00        4925.96          71.41
      2943        57.6835        5019.00        4931.81          70.84
      2944        57.7002        5067.00        4939.54          71.18
      2945        57.7169        4964.00        4950.10          70.46
      2946        57.7336        5032.00        4964.89          70.94
      2947        57.7503        5026.00        4985.91          70.89
      2948        57.7670        4915.00        5015.47          70.11
      2949        57.7837        5177.00        5057.44          71.95
      2950        57.8004        5364.00        5115.04          73.24
      2951        57.8171        5400.00        5191.67          73.48
      2952        57.8339        5313.00        5290.02          72.89
      2953        57.8506        5543.00        5411.01          74.45
      2954        57.8673        5675.00        5553.34          75.33
      2955        57.8840        5817.00        5712.69          76.27
      2956        57.9007        6075.00        5881.28          77.94
      2957        57.9174        6283.00        6047.21          79.27
      2958        57.9341        6491.00        6199.74          80.57
      2959        57.9508        6587.00        6325.39          81.16
      2960        57.9675        6561.00        6417.38          81.00
      2961        57.9843        6481.00        6481.74          80.50
      2962        58.0010        6627.00        6539.14          81.41
      2963        58.0177        6594.00        6623.02          81.20
      2964        58.0344        6786.00        6768.17          82.38
      2965        58.0511        6893.00        6993.98          83.02
      2966        58.0678        7270.00        7293.95          85.26
      2967        58.0845        7470.00        7660.29          86.43
      2968        58.1012        7597.00        7926.68          87.16
      2969        58.1180        7891.00        7912.34          88.83
      2970        58.1347        7705.00        7562.21          87.78
      2971        58.1514        7380.00        7068.57          85.91
      2972        58.1681        6821.00        6619.58          82.59
      2973        58.1848        6347.00        6301.78          79.67
      2974        58.2015        6326.00        6132.13          79.54
      2975        58.2182        6039.00        6113.86          77.71
      2976        58.2349        6103.00        6160.35          78.12
      2977        58.2516        6182.00        6252.79          78.63
      2978        58.2683        6247.00        6267.71          79.04
      2979        58.2851        6329.00        6130.64          79.56
      2980        58.3018        6120.00        5886.84          78.23
      2981        58.3185        5927.00        5637.32          76.99
      2982        58.3352        5803.00        5436.70          76.18
      2983        58.3519        5447.00        5297.04          73.80
      2984        58.3686        5346.00        5209.66          73.12
      2985        58.3853        5291.00        5171.49          72.74
      2986        58.4020        5357.00        5167.95          73.19
      2987        58.4188        5288.00        5154.02          72.72
      2988        58.4355        5323.00        5147.82          72.96
      2989        58.4522        5260.00        5146.28          72.53
      2990        58.4689        5253.00        5148.60          72.48
      2991        58.4856        5283.00        5154.39          72.68
      2992        58.5023        5347.00        5163.48          73.12
      2993        58.5190        5450.00        5176.10          73.82
      2994        58.5357        5303.00        5192.04          72.82
      2995        58.5524        5286.00        5223.59          72.70
      2996        58.5692        5532.00        5248.76          74.38
      2997        58.5859        5427.00        5279.93          73.67
      2998        58.6026        5525.00        5318.74          74.33
      2999        58.6193        5633.00        5366.98          75.05
      3000        58.6360        5763.00        5425.75          75.91
      3001        58.6527        5708.00        5494.46          75.55
      3002        58.6694        5844.00        5569.79          76.45
      3003        58.6861        5785.00        5649.42          76.06
      3004        58.7029        5999.00        5741.16          77.45
      3005        58.7196        6019.00        5859.97          77.58
      3006        58.7363        6533.00        6021.53          80.83
      3007        58.7530        6643.00        6246.06          81.50
      3008        58.7697        7129.00        6569.85          84.43
      3009        58.7864        7752.00        7070.45          88.05
      3010        58.8031        8452.00        7887.46          91.93
      3011        58.8198        9521.00        9194.85          97.58
      3012        58.8365       11195.00       11109.00         105.81
      3013        58.8532       13396.00       13560.70         115.74
      3014        58.8700       16213.00       16088.50         127.33
      3015        58.8867       18575.00       17659.40         136.29
      3016        58.9034       19082.00       17414.70         138.14
      3017        58.9201       17454.00       15965.20         132.11
      3018        58.9368       15419.00       14655.60         124.17
      3019        58.9535       14567.00       14351.40         120.69
      3020        58.9702       14886.00       15388.80         122.01
      3021        58.9869       16859.00       17640.40         129.84
      3022        59.0037       19675.00       20375.10         140.27
      3023        59.0204       22324.00       22207.90         149.41
      3024        59.0371       22849.00       22095.30         151.16
      3025        59.0538       21357.00       20254.90         146.14
      3026        59.0705       17989.00       17584.10         134.12
      3027        59.0872       15526.00       15174.30         124.60
      3028        59.1039       13800.00       13841.10         117.47
      3029        59.1206       13751.00       13932.10         117.26
      3030        59.1373       14695.00       15454.20         121.22
      3031        59.1540       17030.00       18054.20         130.50
      3032        59.1708       19383.00       20808.10         139.22
      3033        59.1875       21543.00       22169.20         146.77
      3034        59.2042       21756.00       21029.20         147.50
      3035        59.2209       19162.00       18043.70         138.43
      3036        59.2376       15662.00       14733.40         125.15
      3037        59.2543       12310.00       12068.10         110.95
      3038        59.2710       10170.00       10383.70         100.85
      3039        59.2877        9404.00        9671.29          96.97
      3040        59.3044        9499.00        9758.22          97.46
      3041        59.3212        9666.00       10376.40          98.32
      3042        59.3379       10453.00       11128.00         102.24
      3043        59.3546       11143.00       11428.80         105.56
      3044        59.3713       11046.00       10871.10         105.10
      3045        59.3880       10448.00        9733.24         102.21
      3046        59.4047        9003.00        8531.32          94.88
      3047        59.4214        7608.00        7544.47          87.22
      3048        59.4381        6736.00        6839.26          82.07
      3049        59.4548        6171.00        6377.86          78.56
      3050        59.4716        5746.00        6084.62          75.80
      3051        59.4883        5700.00        5888.15          75.50
      3052        59.5050        5557.00        5743.70          74.55
      3053        59.5217        5615.00        5632.75          74.93
      3054        59.5384        5279.00        5543.39          72.66
      3055        59.5551        5340.00        5469.10          73.08
      3056        59.5718        5220.00        5405.18          72.25
      3057        59.5885        5077.00        5348.34          71.25
      3058        59.6053        5239.00        5297.25          72.38
      3059        59.6220        4938.00        5250.82          70.27
      3060        59.6387        5019.00        5208.81          70.84
      3061        59.6554        5067.00        5170.46          71.18
      3062        59.6721        5103.00        5137.00          71.44
      3063        59.6888        5026.00        5107.69          70.89
      3064        59.7055        4999.00        5057.90          70.70
      3065        59.7222        4856.00        5037.09          69.68
      3066        59.7390        5011.00        5019.23          70.79
      3067        59.7557        4970.00        5004.10          70.50
      3068        59.7724        4902.00        4990.77          70.01
      3069        59.7891        5042.00        4979.50          71.01
      3070        59.8058        4996.00        4969.60          70.68
      3071        59.8225        4904.00        4960.84          70.03
      3072        59.8392        4855.00        4928.87          69.68
      3073        59.8559        4886.00        4922.62          69.90
      3074        59.8726        4993.00        4905.02          70.66
      3075        59.8893        4800.00        4899.77          69.28
      3076        59.9061        4834.00        4895.41          69.53
      3077        59.9228        4806.00        4891.21          69.33
      3078        59.9395        4842.00        4887.48          69.58
      3079        59.9562        4860.00        4884.02          69.71
      3080        59.9729        4805.00        4880.80          69.32
      3081        59.9896        4881.00        4865.58          69.86
      3082        60.0063        4791.00        4840.02          69.22
      3083        60.0230        4594.00        4838.77          67.78
      3084        60.0398        5074.00        4837.37          71.23
      3085        60.0565        5039.00        4836.29          70.99
      3086        60.0732        4927.00        4835.29          70.19
      3087        60.0899        4940.00        4834.36          70.29
      3088        60.1066        4750.00        4833.49          68.92
      3089        60.1233        4783.00        4832.47          69.16
      3090        60.1400        4810.00        4831.73          69.35
      3091        60.1567        4796.00        4831.05          69.25
      3092        60.1734        4753.00        4819.08          68.94
      3093        60.1901        4809.00        4818.95          69.35
      3094        60.2069        4882.00        4819.11          69.87
      3095        60.2236        4814.00        4819.30          69.38
      3096        60.2403        4907.00        4819.31          70.05
      3097        60.2570        4909.00        4819.38          70.06
      3098        60.2737        4853.00        4819.53          69.66
      3099        60.2904        4780.00        4819.65          69.14
      3100        60.3071        4748.00        4820.02          68.91
      3101        60.3238        4713.00        4820.59          68.65
      3102        60.3405        4789.00        4821.50          69.20
      3103        60.3573        4805.00        4823.04          69.32
      3104        60.3740        4750.00        4825.82          68.92
      3105        60.3907        4848.00        4830.38          69.63
      3106        60.4074        4906.00        4837.26          70.04
      3107        60.4241        4828.00        4846.74          69.48
      3108        60.4408        4831.00        4857.80          69.51
      3109        60.4575        4643.00        4867.23          68.14
      3110        60.4742        4773.00        4869.96          69.09
      3111        60.4909        4724.00        4864.40          68.73
      3112        60.5077        4808.00        4854.93          69.34
      3113        60.5244        4817.00        4846.86          69.40
      3114        60.5411        4797.00        4841.38          69.26
      3115        60.5578        4714.00        4839.90          68.66
      3116        60.5745        4721.00        4842.54          68.71
      3117        60.5912        4823.00        4849.05          69.45
      3118        60.6079        4811.00        4858.79          69.36
      3119        60.6246        4807.00        4870.28          69.33
      3120        60.6413        4979.00        4881.56          70.56
      3121        60.6581        4798.00        4892.48          69.27
      3122        60.6748        4841.00        4905.72          69.58
      3123        60.6915        4902.00        4923.73          70.01
      3124        60.7082        4799.00        4946.40          69.27
      3125        60.7249        4898.00        4973.14          69.99
      3126        60.7416        4994.00        5002.08          70.67
      3127        60.7583        5029.00        5030.65          70.92
      3128        60.7750        5182.00        5055.94          71.99
      3129        60.7917        4988.00        5075.01          70.63
      3130        60.8085        4946.00        5085.77          70.33
      3131        60.8252        4986.00        5087.56          70.61
      3132        60.8419        4988.00        5081.75          70.63
      3133        60.8586        5068.00        5071.01          71.19
      3134        60.8753        4987.00        5058.39          70.62
      3135        60.8920        5090.00        5046.69          71.34
      3136        60.9087        5006.00        5038.33          70.75
      3137        60.9254        5148.00        5035.44          71.75
      3138        60.9422        5036.00        5039.75          70.96
      3139        60.9589        4945.00        5053.19          70.32
      3140        60.9756        4939.00        5075.65          70.28
      3141        60.9923        4985.00        5104.10          70.60
      3142        61.0090        4926.00        5129.16          70.19
      3143        61.0257        4783.00        5134.96          69.16
      3144        61.0424        4865.00        5110.71          69.75
      3145        61.0591        4838.00        5062.33          69.56
      3146        61.0759        4677.00        5007.48          68.39
      3147        61.0926        4962.00        4960.85          70.44
      3148        61.1093        4783.00        4928.91          69.16
      3149        61.1260        4671.00        4913.21          68.34
      3150        61.1427        4678.00        4912.04          68.40
      3151        61.1594        4754.00        4921.62          68.95
      3152        61.1761        4784.00        4935.29          69.17
      3153        61.1928        4722.00        4943.74          68.72
      3154        61.2095        4709.00        4940.75          68.62
      3155        61.2263        4835.00        4929.24          69.53
      3156        61.2430        4794.00        4919.26          69.24
      3157        61.2597        4686.00        4920.48          68.45
      3158        61.2764        4808.00        4938.77          69.34
      3159        61.2931        4792.00        4975.23          69.22
      3160        61.3098        4684.00        5024.80          68.44
      3161        61.3265        4821.00        5071.31          69.43
      3162        61.3432        4821.00        5087.91          69.43
      3163        61.3599        4731.00        5060.84          68.78
      3164        61.3766        4823.00        5008.51          69.45
      3165        61.3934        4756.00        4956.00          68.96
      3166        61.4101        4731.00        4916.73          68.78
      3167        61.4268        4664.00        4894.98          68.29
      3168        61.4435        4831.00        4890.55          69.51
      3169        61.4602        4873.00        4900.64          69.81
      3170        61.4769        4833.00        4920.40          69.52
      3171        61.4936        4721.00        4940.85          68.71
      3172        61.5103        4814.00        4948.80          69.38
      3173        61.5271        4819.00        4934.93          69.42
      3174        61.5438        4709.00        4907.40          68.62
      3175        61.5605        4671.00        4878.45          68.34
      3176        61.5772        4701.00        4854.64          68.56
      3177        61.5939        4746.00        4837.56          68.89
      3178        61.6106        4742.00        4827.12          68.86
      3179        61.6273        4689.00        4820.23          68.48
      3180        61.6440        4735.00        4815.93          68.81
      3181        61.6607        4934.00        4813.08          70.24
      3182        61.6774        4726.00        4811.28          68.75
      3183        61.6942        4628.00        4809.73          68.03
      3184        61.7109        4741.00        4808.50          68.85
      3185        61.7276        4742.00        4807.50          68.86
      3186        61.7443        4657.00        4806.69          68.24
      3187        61.7610        4704.00        4806.02          68.59
      3188        61.7777        4652.00        4806.33          68.21
      3189        61.7944        4725.00        4805.93          68.74
      3190        61.8111        4691.00        4805.63          68.49
      3191        61.8278        4829.00        4805.42          69.49
      3192        61.8446        4804.00        4805.07          69.31
      3193        61.8613        4633.00        4805.06          68.07
      3194        61.8780        4617.00        4804.94          67.95
      3195        61.8947        4784.00        4805.19          69.17
      3196        61.9114        4741.00        4805.61          68.85
      3197        61.9281        4631.00        4806.29          68.05
      3198        61.9448        4745.00        4807.40          68.88
      3199        61.9615        4671.00        4809.42          68.34
      3200        61.9783        4649.00        4812.18          68.18
      3201        61.9950        4759.00        4816.33          68.99
      3202        62.0117        4728.00        4821.94          68.76
      3203        62.0284        4726.00        4829.22          68.75
      3204        62.0451        4789.00        4837.18          69.20
      3205        62.0618        4879.00        4845.52          69.85
      3206        62.0785        4846.00        4851.84          69.61
      3207        62.0952        4714.00        4858.09          68.66
      3208        62.1119        4869.00        4865.52          69.78
      3209        62.1287        4792.00        4874.48          69.22
      3210        62.1454        4835.00        4884.62          69.53
      3211        62.1621        4800.00        4895.23          69.28
      3212        62.1788        4891.00        4904.88          69.94
      3213        62.1955        4838.00        4914.10          69.56
      3214        62.2122        4903.00        4922.21          70.02
      3215        62.2289        5016.00        4930.40          70.82
      3216        62.2456        4856.00        4940.23          69.68
      3217        62.2624        4748.00        4956.27          68.91
      3218        62.2791        5067.00        4982.81          71.18
      3219        62.2958        4897.00        5021.63          69.98
      3220        62.3125        5033.00        5069.38          70.94
      3221        62.3292        5043.00        5114.08          71.01
      3222        62.3459        5185.00        5137.57          72.01
      3223        62.3626        5054.00        5138.32          71.09
      3224        62.3793        5209.00        5136.57          72.17
      3225        62.3960        5057.00        5151.31          71.11
      3226        62.4128        5067.00        5184.87          71.18
      3227        62.4295        5018.00        5217.95          70.84
      3228        62.4462        5075.00        5222.16          71.24
      3229        62.4629        5037.00        5190.31          70.97
      3230        62.4796        5124.00        5145.87          71.58
      3231        62.4963        5065.00        5108.99          71.17
      3232        62.5130        5132.00        5083.30          71.64
      3233        62.5297        5071.00        5068.60          71.21
      3234        62.5464        4958.00        5072.71          70.41
      3235        62.5632        4977.00        5103.60          70.55
      3236        62.5799        5147.00        5157.71          71.74
      3237        62.5966        5024.00        5215.09          70.88
      3238        62.6133        5154.00        5237.20          71.79
      3239        62.6300        5108.00        5199.62          71.47
      3240        62.6467        5126.00        5122.85          71.60
      3241        62.6634        5103.00        5042.55          71.44
      3242        62.6801        4963.00        4978.86          70.45
      3243        62.6968        4982.00        4938.45          70.58
      3244        62.7136        4958.00        4920.89          70.41
      3245        62.7303        4892.00        4922.76          69.94
      3246        62.7470        4854.00        4939.46          69.67
      3247        62.7637        4962.00        4965.14          70.44
      3248        62.7804        5053.00        4991.35          71.08
      3249        62.7971        5017.00        5011.10          70.83
      3250        62.8138        4865.00        5030.23          69.75
      3251        62.8305        4934.00        5062.43          70.24
      3252        62.8472        4995.00        5113.36          70.68
      3253        62.8639        5087.00        5172.33          71.32
      3254        62.8807        5110.00        5209.04          71.48
      3255        62.8974        5029.00        5191.74          70.92
      3256        62.9141        4943.00        5127.22          70.31
      3257        62.9308        5110.00        5049.86          71.48
      3258        62.9475        5021.00        4984.60          70.86
      3259        62.9642        4927.00        4941.65          70.19
      3260        62.9809        4910.00        4923.08          70.07
      3261        62.9976        4856.00        4926.80          69.68
      3262        63.0143        4915.00        4948.32          70.11
      3263        63.0311        4988.00        4979.75          70.63
      3264        63.0478        4872.00        5007.23          69.80
      3265        63.0645        5061.00        5012.40          71.14
      3266        63.0812        4989.00        4989.90          70.63
      3267        63.0979        5141.00        4954.29          71.70
      3268        63.1146        4831.00        4921.58          69.51
      3269        63.1313        4858.00        4900.49          69.70
      3270        63.1480        4919.00        4895.27          70.14
      3271        63.1648        4908.00        4908.63          70.06
      3272        63.1815        5052.00        4942.05          71.08
      3273        63.1982        4987.00        4996.28          70.62
      3274        63.2149        5131.00        5065.28          71.63
      3275        63.2316        5105.00        5131.85          71.45
      3276        63.2483        5232.00        5164.46          72.33
      3277        63.2650        5262.00        5140.49          72.54
      3278        63.2817        5107.00        5076.21          71.46
      3279        63.2985        5179.00        5006.05          71.97
      3280        63.3152        4875.00        4949.68          69.82
      3281        63.3319        4841.00        4914.68          69.58
      3282        63.3486        4797.00        4902.11          69.26
      3283        63.3653        4807.00        4909.38          69.33
      3284        63.3820        4875.00        4932.40          69.82
      3285        63.3987        5178.00        4963.02          71.96
      3286        63.4154        4974.00        4987.23          70.53
      3287        63.4321        5027.00        4988.57          70.90
      3288        63.4488        4992.00        4965.09          70.65
      3289        63.4656        5036.00        4930.68          70.96
      3290        63.4823        4924.00        4899.91          70.17
      3291        63.4990        4894.00        4877.20          69.96
      3292        63.5157        4708.00        4862.96          68.61
      3293        63.5324        4891.00        4855.13          69.94
      3294        63.5491        4813.00        4851.10          69.38
      3295        63.5658        4832.00        4848.60          69.51
      3296        63.5825        4942.00        4846.19          70.30
      3297        63.5992        4858.00        4843.24          69.70
      3298        63.6160        4732.00        4839.73          68.79
      3299        63.6327        4875.00        4835.67          69.82
      3300        63.6494        4722.00        4831.96          68.72
      3301        63.6661        4833.00        4828.60          69.52
      3302        63.6828        4794.00        4825.77          69.24
      3303        63.6995        4918.00        4823.52          70.13
      3304        63.7162        4817.00        4821.82          69.40
      3305        63.7329        4802.00        4819.80          69.30
      3306        63.7497        4857.00        4819.20          69.69
      3307        63.7664        4794.00        4819.40          69.24
      3308        63.7831        4794.00        4820.74          69.24
      3309        63.7998        4865.00        4823.59          69.75
      3310        63.8165        4795.00        4830.69          69.25
      3311        63.8332        4882.00        4834.59          69.87
      3312        63.8499        4873.00        4835.31          69.81
      3313        63.8666        5052.00        4830.73          71.08
      3314        63.8833        4896.00        4822.50          69.97
      3315        63.9000        4970.00        4813.90          70.50
      3316        63.9168        4924.00        4806.54          70.17
      3317        63.9335        4915.00        4801.98          70.11
      3318        63.9502        5004.00        4799.85          70.74
      3319        63.9669        4829.00        4799.94          69.49
      3320        63.9836        4931.00        4801.74          70.22
      3321        64.0003        4943.00        4806.03          70.31
      3322        64.0170        4869.00        4808.46          69.78
      3323        64.0337        4826.00        4808.82          69.47
      3324        64.0504        4990.00        4806.64          70.64
      3325        64.0672        4906.00        4803.20          70.04
      3326        64.0839        4892.00        4799.89          69.94
      3327        64.1006        4941.00        4796.57          70.29
      3328        64.1173        4756.00        4794.94          68.96
      3329        64.1340        4945.00        4794.09          70.32
      3330        64.1507        4875.00        4793.80          69.82
      3331        64.1674        4841.00        4793.89          69.58
      3332        64.1841        4861.00        4794.24          69.72
      3333        64.2009        4753.00        4794.78          68.94
      3334        64.2176        4752.00        4795.49          68.93
      3335        64.2343        4772.00        4796.36          69.08
      3336        64.2510        4805.00        4797.38          69.32
      3337        64.2677        4726.00        4798.54          68.75
      3338        64.2844        4729.00        4799.42          68.77
      3339        64.3011        4800.00        4800.80          69.28
      3340        64.3178        4826.00        4802.37          69.47
      3341        64.3345        4846.00        4804.20          69.61
      3342        64.3513        4813.00        4807.04          69.38
      3343        64.3680        4857.00        4809.64          69.69
      3344        64.3847        4711.00        4812.70          68.64
      3345        64.4014        4938.00        4817.06          70.27
      3346        64.4181        4780.00        4821.43          69.14
      3347        64.4348        4751.00        4826.65          68.93
      3348        64.4515        4892.00        4832.96          69.94
      3349        64.4682        4886.00        4840.67          69.90
      3350        64.4849        4950.00        4850.30          70.36
      3351        64.5017        4865.00        4862.75          69.75
      3352        64.5184        4847.00        4879.74          69.62
      3353        64.5351        4859.00        4905.04          69.71
      3354        64.5518        5000.00        4944.58          70.71
      3355        64.5685        5162.00        5009.90          71.85
      3356        64.5852        5328.00        5117.04          72.99
      3357        64.6019        5310.00        5281.76          72.87
      3358        64.6186        5534.00        5512.21          74.39
      3359        64.6353        5929.00        5794.04          77.00
      3360        64.6521        6226.00        6069.89          78.90
      3361        64.6688        6373.00        6224.87          79.83
      3362        64.6855        6159.00        6164.04          78.48
      3363        64.7022        6089.00        5935.25          78.03
      3364        64.7189        5595.00        5664.90          74.80
      3365        64.7356        5339.00        5438.05          73.07
      3366        64.7523        5271.00        5289.86          72.60
      3367        64.7690        5346.00        5227.74          73.12
      3368        64.7858        5235.00        5245.00          72.35
      3369        64.8025        5492.00        5327.09          74.11
      3370        64.8192        5584.00        5449.77          74.73
      3371        64.8359        5711.00        5569.22          75.57
      3372        64.8526        5848.00        5620.49          76.47
      3373        64.8693        5729.00        5566.22          75.69
      3374        64.8860        5600.00        5442.58          74.83
      3375        64.9027        5412.00        5307.32          73.57
      3376        64.9194        5214.00        5192.22          72.21
      3377        64.9361        5312.00        5106.56          72.88
      3378        64.9529        5146.00        5047.61          71.74
      3379        64.9696        5177.00        5021.94          71.95
      3380        64.9863        5106.00        4995.89          71.46
      3381        65.0030        5112.00        4977.82          71.50
      3382        65.0197        5019.00        4965.06          70.84
      3383        65.0364        5068.00        4956.49          71.19
      3384        65.0531        5026.00        4951.76          70.89
      3385        65.0698        5074.00        4951.14          71.23
      3386        65.0865        5140.00        4955.61          71.69
      3387        65.1033        5016.00        4967.30          70.82
      3388        65.1200        4990.00        4989.84          70.64
      3389        65.1367        5080.00        5028.01          71.27
      3390        65.1534        5075.00        5093.04          71.24
      3391        65.1701        5137.00        5172.56          71.67
      3392        65.1868        5128.00        5265.12          71.61
      3393        65.2035        5136.00        5389.08          71.67
      3394        65.2202        5152.00        5439.08          71.78
      3395        65.2369        5049.00        5449.00          71.06
      3396        65.2537        5108.00        5419.18          71.47
      3397        65.2704        5099.00        5349.21          71.41
      3398        65.2871        5195.00        5260.76          72.08
      3399        65.3038        5038.00        5183.83          70.98
      3400        65.3205        4999.00        5162.61          70.70
      3401        65.3372        5066.00        5148.00          71.18
      3402        65.3539        5004.00        5162.65          70.74
      3403        65.3706        5103.00        5196.45          71.44
      3404        65.3874        5277.00        5252.87          72.64
      3405        65.4041        5039.00        5280.35          70.99
      3406        65.4208        4947.00        5288.22          70.33
      3407        65.4375        5146.00        5278.13          71.74
      3408        65.4542        5184.00        5249.81          72.00
      3409        65.4709        5191.00        5214.19          72.05
      3410        65.4876        5131.00        5184.61          71.63
      3411        65.5043        5246.00        5180.86          72.43
      3412        65.5210        5180.00        5177.09          71.97
      3413        65.5378        5194.00        5181.00          72.07
      3414        65.5545        5396.00        5196.21          73.46
      3415        65.5712        5163.00        5218.42          71.85
      3416        65.5879        5241.00        5249.17          72.39
      3417        65.6046        5280.00        5286.00          72.66
      3418        65.6213        5436.00        5331.56          73.73
      3419        65.6380        5459.00        5387.85          73.89
      3420        65.6547        5535.00        5458.36          74.40
      3421        65.6714        5611.00        5549.45          74.91
      3422        65.6882        5672.00        5673.87          75.31
      3423        65.7049        6103.00        5856.46          78.12
      3424        65.7216        6322.00        6138.32          79.51
      3425        65.7383        6806.00        6585.70          82.50
      3426        65.7550        7515.00        7268.93          86.69
      3427        65.7717        8557.00        8237.32          92.50
      3428        65.7884        9627.00        9464.84          98.12
      3429        65.8051       11423.00       10773.60         106.88
      3430        65.8218       12462.00       11748.10         111.63
      3431        65.8386       12447.00       11895.10         111.57
      3432        65.8553       11584.00       11203.80         107.63
      3433        65.8720       10272.00       10173.20         101.35
      3434        65.8887        9480.00        9257.68          97.37
      3435        65.9054        8878.00        8691.46          94.22
      3436        65.9221        9023.00        8578.95          94.99
      3437        65.9388        9372.00        8987.08          96.81
      3438        65.9555       10516.00        9997.77         102.55
      3439        65.9723       12411.00       11721.90         111.40
      3440        65.9890       14974.00       14235.30         122.37
      3441        66.0057       18133.00       17443.70         134.66
      3442        66.0224       21517.00       21007.40         146.69
      3443        66.0391       25201.00       24381.50         158.75
      3444        66.0558       28889.00       26634.10         169.97
      3445        66.0725       29361.00       26707.60         171.35
      3446        66.0892       26907.00       24786.60         164.03
      3447        66.1059       23221.00       22346.90         152.38
      3448        66.1227       20763.00       20746.60         144.09
      3449        66.1394       20243.00       20554.60         142.28
      3450        66.1561       21499.00       21600.50         146.63
      3451        66.1728       23959.00       23033.80         154.79
      3452        66.1895       25573.00       23752.50         159.92
      3453        66.2062       24695.00       23511.50         157.15
      3454        66.2229       23882.00       22889.50         154.54
      3455        66.2396       22656.00       22078.70         150.52
      3456        66.2563       21401.00       20713.60         146.29
      3457        66.2730       19512.00       18709.70         139.68
      3458        66.2898       16683.00       16574.70         129.16
      3459        66.3065       14619.00       14900.20         120.91
      3460        66.3232       13596.00       13972.80         116.60
      3461        66.3399       13489.00       13694.40         116.14
      3462        66.3566       13972.00       13607.00         118.20
      3463        66.3733       13527.00       13102.10         116.31
      3464        66.3900       12633.00       11995.70         112.40
      3465        66.4067       11194.00       10646.90         105.80
      3466        66.4234        9374.00        9424.28          96.82
      3467        66.4402        8224.00        8470.74          90.69
      3468        66.4569        7499.00        7757.03          86.60
      3469        66.4736        7097.00        7195.03          84.24
      3470        66.4903        6510.00        6728.61          80.68
      3471        66.5070        6180.00        6352.83          78.61
      3472        66.5237        5898.00        6061.53          76.80
      3473        66.5404        5723.00        5841.26          75.65
      3474        66.5571        5593.00        5677.41          74.79
      3475        66.5739        5375.00        5555.60          73.31
      3476        66.5906        5238.00        5463.28          72.37
      3477        66.6073        5218.00        5390.99          72.24
      3478        66.6240        5278.00        5332.37          72.65
      3479        66.6407        5098.00        5283.45          71.40
      3480        66.6574        5023.00        5243.13          70.87
      3481        66.6741        5146.00        5207.34          71.74
      3482        66.6908        5121.00        5176.27          71.56
      3483        66.7075        5034.00        5135.84          70.95
      3484        66.7243        4957.00        5112.43          70.41
      3485        66.7410        5012.00        5091.94          70.80
      3486        66.7577        5112.00        5074.06          71.50
      3487        66.7744        4950.00        5058.85          70.36
      3488        66.7911        5120.00        5047.39          71.55
      3489        66.8078        4952.00        5038.12          70.37
      3490        66.8245        4930.00        5032.64          70.21
      3491        66.8412        5126.00        5031.29          71.60
      3492        66.8579        5021.00        5033.67          70.86
      3493        66.8747        4986.00        5037.67          70.61
      3494        66.8914        4842.00        5032.34          69.58
      3495        66.9081        5012.00        5025.72          70.80
      3496        66.9248        4885.00        5010.58          69.89
      3497        66.9415        4880.00        4965.99          69.86
      3498        66.9582        5086.00        4936.29          71.32
      3499        66.9749        4921.00        4924.34          70.15
      3500        66.9916        4814.00        4916.12          69.38
      3501        67.0083        4899.00        4912.10          69.99
      3502        67.0251        5105.00        4911.82          71.45
      3503        67.0418        5116.00        4914.60          71.53
      3504        67.0585        4938.00        4892.77          70.27
      3505        67.0752        5133.00        4899.74          71.64
      3506        67.0919        4919.00        4902.21          70.14
      3507        67.1086        4948.00        4900.73          70.34
      3508        67.1253        5096.00        4884.60          71.39
      3509        67.1420        5057.00        4876.18          71.11
      3510        67.1588        5053.00        4874.10          71.08
      3511        67.1755        5121.00        4878.80          71.56
      3512        67.1922        5008.00        4887.98          70.77
      3513        67.2089        5067.00        4903.40          71.18
      3514        67.2256        5132.00        4928.77          71.64
      3515        67.2423        5115.00        4957.71          71.52
      3516        67.2590        5165.00        5028.14          71.87
      3517        67.2757        5167.00        5137.13          71.88
      3518        67.2924        5238.00        5294.89          72.37
      3519        67.3092        5517.00        5499.29          74.28
      3520        67.3259        5579.00        5725.39          74.69
      3521        67.3426        5748.00        5908.06          75.82
      3522        67.3593        5764.00        5960.07          75.92
      3523        67.3760        5783.00        5849.83          76.05
      3524        67.3927        5673.00        5648.85          75.32
      3525        67.4094        5639.00        5443.84          75.09
      3526        67.4261        5530.00        5282.50          74.36
      3527        67.4428        5419.00        5182.76          73.61
      3528        67.4595        5334.00        5146.74          73.03
      3529        67.4763        5405.00        5168.85          73.52
      3530        67.4930        5268.00        5238.93          72.58
      3531        67.5097        5323.00        5340.45          72.96
      3532        67.5264        5540.00        5442.88          74.43
      3533        67.5431        5626.00        5500.28          75.01
      3534        67.5598        5509.00        5483.04          74.22
      3535        67.5765        5439.00        5418.17          73.75
      3536        67.5932        5412.00        5357.67          73.57
      3537        67.6099        5582.00        5334.65          74.71
      3538        67.6267        5476.00        5356.23          74.00
      3539        67.6434        5554.00        5405.48          74.53
      3540        67.6601        5809.00        5442.98          76.22
      3541        67.6768        5832.00        5425.86          76.37
      3542        67.6935        5656.00        5348.55          75.21
      3543        67.7102        5672.00        5245.37          75.31
      3544        67.7269        5462.00        5149.30          73.91
      3545        67.7436        5476.00        5078.91          74.00
      3546        67.7603        5131.00        5035.36          71.63
      3547        67.7771        5264.00        5021.90          72.55
      3548        67.7938        5076.00        5036.51          71.25
      3549        67.8105        5191.00        5075.52          72.05
      3550        67.8272        5304.00        5132.31          72.83
      3551        67.8439        5319.00        5195.87          72.93
      3552        67.8606        5362.00        5251.51          73.23
      3553        67.8773        5592.00        5296.72          74.78
      3554        67.8940        5733.00        5348.57          75.72
      3555        67.9108        5578.00        5423.27          74.69
      3556        67.9275        5752.00        5514.14          75.84
      3557        67.9442        5649.00        5579.47          75.16
      3558        67.9609        5659.00        5567.34          75.23
      3559        67.9776        5649.00        5469.33          75.16
      3560        67.9943        5504.00        5331.97          74.19
      3561        68.0110        5348.00        5201.52          73.13
      3562        68.0277        5173.00        5101.65          71.92
      3563        68.0444        5119.00        5040.18          71.55
      3564        68.0612        5118.00        5016.61          71.54
      3565        68.0779        5136.00        5027.33          71.67
      3566        68.0946        5200.00        5064.57          72.11
      3567        68.1113        5194.00        5119.03          72.07
      3568        68.1280        5258.00        5170.45          72.51
      3569        68.1447        5372.00        5191.58          73.29
      3570        68.1614        5175.00        5164.71          71.94
      3571        68.1781        5128.00        5103.22          71.61
      3572        68.1948        5039.00        5033.64          70.99
      3573        68.2116        5083.00        4972.68          71.30
      3574        68.2283        4875.00        4926.43          69.82
      3575        68.2450        5063.00        4892.48          71.15
      3576        68.2617        4999.00        4872.77          70.70
      3577        68.2784        4792.00        4861.44          69.22
      3578        68.2951        4936.00        4855.33          70.26
      3579        68.3118        4927.00        4852.07          70.19
      3580        68.3285        4994.00        4851.06          70.67
      3581        68.3452        5080.00        4851.97          71.27
      3582        68.3620        4875.00        4854.78          69.82
      3583        68.3787        4890.00        4859.51          69.93
      3584        68.3954        4855.00        4866.03          69.68
      3585        68.4121        4948.00        4873.79          70.34
      3586        68.4288        4778.00        4881.61          69.12
      3587        68.4455        4976.00        4887.18          70.54
      3588        68.4622        4935.00        4893.90          70.25
      3589        68.4789        4952.00        4903.48          70.37
      3590        68.4957        4942.00        4920.10          70.30
      3591        68.5124        5002.00        4949.61          70.72
      3592        68.5291        5312.00        5000.44          72.88
      3593        68.5458        5306.00        5083.35          72.84
      3594        68.5625        5320.00        5208.10          72.94
      3595        68.5792        5608.00        5380.66          74.89
      3596        68.5959        5830.00        5589.46          76.35
      3597        68.6126        6312.00        5796.57          79.45
      3598        68.6293        6050.00        5928.00          77.78
      3599        68.6460        6111.00        5914.54          78.17
      3600        68.6628        5701.00        5774.81          75.50
      3601        68.6795        5631.00        5590.59          75.04
      3602        68.6962        5432.00        5427.96          73.70
      3603        68.7129        5362.00        5315.97          73.23
      3604        68.7296        5300.00        5257.58          72.80
      3605        68.7463        5408.00        5242.14          73.54
      3606        68.7630        5505.00        5258.94          74.20
      3607        68.7797        5466.00        5305.26          73.93
      3608        68.7964        5668.00        5372.78          75.29
      3609        68.8132        5696.00        5437.02          75.47
      3610        68.8299        5589.00        5458.43          74.76
      3611        68.8466        5581.00        5416.10          74.71
      3612        68.8633        5374.00        5335.18          73.31
      3613        68.8800        5267.00        5260.38          72.57
      3614        68.8967        5238.00        5218.43          72.37
      3615        68.9134        5153.00        5220.92          71.78
      3616        68.9301        5072.00        5266.33          71.22
      3617        68.9468        5119.00        5342.04          71.55
      3618        68.9636        5124.00        5425.94          71.58
      3619        68.9803        5097.00        5484.06          71.39
      3620        68.9970        5195.00        5481.39          72.08
      3621        69.0137        5205.00        5409.75          72.15
      3622        69.0304        5182.00        5297.77          71.99
      3623        69.0471        5164.00        5183.07          71.86
      3624        69.0638        5057.00        5091.11          71.11
      3625        69.0805        5088.00        5030.41          71.33
      3626        69.0973        5117.00        5002.08          71.53
      3627        69.1140        5033.00        5003.21          70.94
      3628        69.1307        4972.00        5028.45          70.51
      3629        69.1474        5108.00        5069.46          71.47
      3630        69.1641        4937.00        5112.20          70.26
      3631        69.1808        4991.00        5136.81          70.65
      3632        69.1975        5129.00        5127.42          71.62
      3633        69.2142        5202.00        5085.51          72.12
      3634        69.2309        5086.00        5028.09          71.32
      3635        69.2477        5070.00        4972.26          71.20
      3636        69.2644        5177.00        4926.76          71.95
      3637        69.2811        5080.00        4893.72          71.27
      3638        69.2978        5099.00        4871.60          71.41
      3639        69.3145        5097.00        4857.69          71.39
      3640        69.3312        5075.00        4849.23          71.24
      3641        69.3479        5024.00        4844.12          70.88
      3642        69.3646        5094.00        4845.52          71.37
      3643        69.3813        4958.00        4844.25          70.41
      3644        69.3981        5005.00        4844.31          70.75
      3645        69.4148        4941.00        4845.86          70.29
      3646        69.4315        5047.00        4849.56          71.04
      3647        69.4482        4875.00        4856.66          69.82
      3648        69.4649        4902.00        4869.22          70.01
      3649        69.4816        5092.00        4889.93          71.36
      3650        69.4983        5122.00        4921.20          71.57
      3651        69.5150        5065.00        4963.85          71.17
      3652        69.5317        4969.00        5015.02          70.49
      3653        69.5485        5223.00        5063.05          72.27
      3654        69.5652        5181.00        5095.77          71.98
      3655        69.5819        5175.00        5090.13          71.94
      3656        69.5986        5090.00        5053.64          71.34
      3657        69.6153        4941.00        5003.86          70.29
      3658        69.6320        5121.00        4957.96          71.56
      3659        69.6487        5109.00        4923.49          71.48
      3660        69.6654        4963.00        4903.37          70.45
      3661        69.6822        4975.00        4897.06          70.53
      3662        69.6989        5018.00        4904.20          70.84
      3663        69.7156        4912.00        4920.14          70.09
      3664        69.7323        5142.00        4942.28          71.71
      3665        69.7490        5124.00        4962.66          71.58
      3666        69.7657        5090.00        4973.49          71.34
      3667        69.7824        5074.00        4966.44          71.23
      3668        69.7991        5113.00        4946.04          71.51
      3669        69.8158        5047.00        4920.87          71.04
      3670        69.8326        4961.00        4899.53          70.43
      3671        69.8493        5132.00        4882.42          71.64
      3672        69.8660        4983.00        4871.22          70.59
      3673        69.8827        5067.00        4864.91          71.18
      3674        69.8994        5107.00        4862.23          71.46
      3675        69.9161        4919.00        4861.28          70.14
      3676        69.9328        5126.00        4863.58          71.60
      3677        69.9495        5174.00        4866.36          71.93
      3678        69.9662        5146.00        4870.31          71.74
      3679        69.9829        5180.00        4875.51          71.97
      3680        69.9997        5118.00        4882.16          71.54
      3681        70.0164        5350.00        4890.58          73.14
      3682        70.0331        5226.00        4901.77          72.29
      3683        70.0498        5359.00        4915.16          73.21
      3684        70.0665        5148.00        4932.07          71.75
      3685        70.0832        5269.00        4953.29          72.59
      3686        70.0999        5377.00        4980.94          73.33
      3687        70.1166        5441.00        5016.98          73.76
      3688        70.1333        5589.00        5069.14          74.76
      3689        70.1501        5551.00        5140.16          74.50
      3690        70.1668        5639.00        5246.49          75.09
      3691        70.1835        5840.00        5399.97          76.42
      3692        70.2002        6066.00        5618.63          77.88
      3693        70.2169        6314.00        5912.16          79.46
      3694        70.2336        6458.00        6274.60          80.36
      3695        70.2503        6729.00        6653.06          82.03
      3696        70.2670        7018.00        6940.03          83.77
      3697        70.2838        7354.00        6995.99          85.76
      3698        70.3005        7249.00        6790.54          85.14
      3699        70.3172        7183.00        6444.34          84.75
      3700        70.3339        6694.00        6095.21          81.82
      3701        70.3506        6270.00        5818.73          79.18
      3702        70.3673        6120.00        5648.19          78.23
      3703        70.3840        5963.00        5587.56          77.22
      3704        70.4007        5866.00        5631.59          76.59
      3705        70.4174        6068.00        5768.96          77.90
      3706        70.4342        6217.00        5981.60          78.85
      3707        70.4509        6386.00        6229.01          79.91
      3708        70.4676        6471.00        6444.79          80.44
      3709        70.4843        6773.00        6551.80          82.30
      3710        70.5010        7127.00        6524.78          84.42
      3711        70.5177        7047.00        6396.02          83.95
      3712        70.5344        6676.00        6214.88          81.71
      3713        70.5511        6536.00        6039.97          80.85
      3714        70.5678        6442.00        5919.54          80.26
      3715        70.5846        6220.00        5864.48          78.87
      3716        70.6013        6245.00        5848.60          79.03
      3717        70.6180        6281.00        5827.45          79.25
      3718        70.6347        6374.00        5781.21          79.84
      3719        70.6514        6112.00        5731.88          78.18
      3720        70.6681        6094.00        5710.61          78.06
      3721        70.6848        6133.00        5734.47          78.31
      3722        70.7015        5895.00        5801.34          76.78
      3723        70.7182        5895.00        5884.04          76.78
      3724        70.7350        6196.00        5942.08          78.71
      3725        70.7517        5966.00        5947.10          77.24
      3726        70.7684        6171.00        5907.34          78.56
      3727        70.7851        6031.00        5860.12          77.66
      3728        70.8018        6333.00        5830.24          79.58
      3729        70.8185        6332.00        5813.26          79.57
      3730        70.8352        6209.00        5793.20          78.80
      3731        70.8519        6226.00        5756.29          78.90
      3732        70.8687        5972.00        5694.96          77.28
      3733        70.8854        5870.00        5623.66          76.62
      3734        70.9021        5799.00        5569.44          76.15
      3735        70.9188        5850.00        5550.35          76.49
      3736        70.9355        5862.00        5560.50          76.56
      3737        70.9522        5735.00        5593.58          75.73
      3738        70.9689        5927.00        5654.81          76.99
      3739        70.9856        5923.00        5771.25          76.96
      3740        71.0023        6163.00        5971.30          78.50
      3741        71.0191        6360.00        6264.63          79.75
      3742        71.0358        6807.00        6628.50          82.50
      3743        71.0525        6993.00        6993.81          83.62
      3744        71.0692        7411.00        7261.54          86.09
      3745        71.0859        7588.00        7370.17          87.11
      3746        71.1026        7483.00        7335.24          86.50
      3747        71.1193        7536.00        7226.35          86.81
      3748        71.1360        7237.00        7091.74          85.07
      3749        71.1527        6839.00        6914.69          82.70
      3750        71.1694        6673.00        6670.86          81.69
      3751        71.1862        6436.00        6403.40          80.22
      3752        71.2029        6145.00        6183.73          78.39
      3753        71.2196        6180.00        6063.63          78.61
      3754        71.2363        6085.00        6040.91          78.01
      3755        71.2530        6247.00        6084.66          79.04
      3756        71.2697        6369.00        6141.08          79.81
      3757        71.2864        6443.00        6168.31          80.27
      3758        71.3031        6383.00        6140.54          79.89
      3759        71.3198        6329.00        6080.81          79.56
      3760        71.3366        6196.00        6009.52          78.71
      3761        71.3533        5935.00        5917.85          77.04
      3762        71.3700        5741.00        5786.69          75.77
      3763        71.3867        5623.00        5626.93          74.99
      3764        71.4034        5644.00        5470.95          75.13
      3765        71.4201        5546.00        5345.01          74.47
      3766        71.4368        5408.00        5252.94          73.54
      3767        71.4535        5364.00        5190.56          73.24
      3768        71.4703        5318.00        5152.87          72.92
      3769        71.4870        5254.00        5130.49          72.48
      3770        71.5037        5341.00        5119.09          73.08
      3771        71.5204        5276.00        5112.75          72.64
      3772        71.5371        5230.00        5102.17          72.32
      3773        71.5538        5195.00        5089.84          72.08
      3774        71.5705        5170.00        5078.25          71.90
      3775        71.5872        5271.00        5067.06          72.60
      3776        71.6040        5134.00        5057.52          71.65
      3777        71.6207        5278.00        5054.65          72.65
      3778        71.6374        5114.00        5050.86          71.51
      3779        71.6541        5100.00        5050.07          71.41
      3780        71.6708        5106.00        5053.76          71.46
      3781        71.6875        5113.00        5060.75          71.51
      3782        71.7042        5230.00        5074.66          72.32
      3783        71.7209        5121.00        5099.77          71.56
      3784        71.7376        5211.00        5137.60          72.19
      3785        71.7543        5271.00        5198.54          72.60
      3786        71.7711        5247.00        5294.18          72.44
      3787        71.7878        5479.00        5431.12          74.02
      3788        71.8045        5559.00        5610.77          74.56
      3789        71.8212        5667.00        5816.93          75.28
      3790        71.8379        5730.00        6000.36          75.70
      3791        71.8546        5633.00        6089.92          75.05
      3792        71.8713        5539.00        6036.76          74.42
      3793        71.8880        5468.00        5874.25          73.95
      3794        71.9047        5384.00        5679.52          73.38
      3795        71.9215        5242.00        5507.08          72.40
      3796        71.9382        5379.00        5383.10          73.34
      3797        71.9549        5320.00        5316.65          72.94
      3798        71.9716        5327.00        5307.89          72.99
      3799        71.9883        5428.00        5354.11          73.68
      3800        72.0050        5630.00        5448.77          75.03
      3801        72.0217        5636.00        5586.88          75.07
      3802        72.0384        5454.00        5753.06          73.85
      3803        72.0551        5605.00        5914.80          74.87
      3804        72.0719        5696.00        6031.02          75.47
      3805        72.0886        5771.00        6093.31          75.97
      3806        72.1053        5765.00        6123.51          75.93
      3807        72.1220        6071.00        6145.24          77.92
      3808        72.1387        6235.00        6207.67          78.96
      3809        72.1554        6449.00        6368.63          80.31
      3810        72.1721        7021.00        6659.21          83.79
      3811        72.1888        7544.00        7063.31          86.86
      3812        72.2056        8578.00        7500.45          92.62
      3813        72.2223        8598.00        7814.85          92.73
      3814        72.2390        8607.00        7838.61          92.77
      3815        72.2557        8306.00        7566.98          91.14
      3816        72.2724        7566.00        7157.03          86.98
      3817        72.2891        7018.00        6758.54          83.77
      3818        72.3058        6654.00        6447.73          81.57
      3819        72.3225        6415.00        6251.86          80.09
      3820        72.3392        6452.00        6182.61          80.32
      3821        72.3559        6375.00        6259.87          79.84
      3822        72.3727        6640.00        6501.47          81.49
      3823        72.3894        7141.00        6910.50          84.50
      3824        72.4061        7997.00        7456.30          89.43
      3825        72.4228        8595.00        8053.19          92.71
      3826        72.4395        9212.00        8548.80          95.98
      3827        72.4562        9428.00        8782.28          97.10
      3828        72.4729        9530.00        8698.24          97.62
      3829        72.4896        8962.00        8409.64          94.67
      3830        72.5063        8432.00        8109.33          91.83
      3831        72.5231        7920.00        7921.38          88.99
      3832        72.5398        8030.00        7848.77          89.61
      3833        72.5565        8004.00        7789.58          89.47
      3834        72.5732        7961.00        7624.19          89.22
      3835        72.5899        7669.00        7349.76          87.57
      3836        72.6066        7152.00        7068.57          84.57
      3837        72.6233        6948.00        6867.18          83.35
      3838        72.6400        7109.00        6768.43          84.31
      3839        72.6568        6940.00        6735.86          83.31
      3840        72.6735        6990.00        6697.14          83.61
      3841        72.6902        6877.00        6610.83          82.93
      3842        72.7069        6661.00        6508.48          81.61
      3843        72.7236        6576.00        6440.37          81.09
      3844        72.7403        6732.00        6420.38          82.05
      3845        72.7570        6572.00        6414.11          81.07
      3846        72.7737        6630.00        6356.39          81.42
      3847        72.7905        6634.00        6210.35          81.45
      3848        72.8072        6468.00        6004.71          80.42
      3849        72.8239        5901.00        5797.58          76.82
      3850        72.8406        5814.00        5621.17          76.25
      3851        72.8573        5550.00        5490.64          74.50
      3852        72.8740        5441.00        5414.68          73.76
      3853        72.8907        5433.00        5385.26          73.71
      3854        72.9074        5491.00        5407.43          74.10
      3855        72.9241        5582.00        5483.89          74.71
      3856        72.9408        5532.00        5615.78          74.38
      3857        72.9576        5676.00        5796.06          75.34
      3858        72.9743        5732.00        6000.61          75.71
      3859        72.9910        5872.00        6176.60          76.63
      3860        73.0077        6005.00        6245.29          77.49
      3861        73.0244        5906.00        6164.40          76.85
      3862        73.0411        5812.00        5973.05          76.24
      3863        73.0578        5825.00        5747.99          76.32
      3864        73.0745        5489.00        5546.22          74.09
      3865        73.0912        5472.00        5394.72          73.97
      3866        73.1080        5272.00        5297.52          72.61
      3867        73.1247        5404.00        5255.54          73.51
      3868        73.1414        5147.00        5266.25          71.74
      3869        73.1581        5195.00        5315.53          72.08
      3870        73.1748        5277.00        5394.15          72.64
      3871        73.1915        5284.00        5475.57          72.69
      3872        73.2082        5262.00        5536.82          72.54
      3873        73.2249        5437.00        5535.00          73.74
      3874        73.2416        5259.00        5464.13          72.52
      3875        73.2584        5281.00        5355.41          72.67
      3876        73.2751        5254.00        5246.13          72.48
      3877        73.2918        5065.00        5150.15          71.17
      3878        73.3085        5134.00        5080.77          71.65
      3879        73.3252        4986.00        5029.63          70.61
      3880        73.3419        4944.00        4996.12          70.31
      3881        73.3586        5136.00        4976.51          71.67
      3882        73.3753        5196.00        4963.38          72.08
      3883        73.3921        4944.00        4952.29          70.31
      3884        73.4088        5009.00        4946.99          70.77
      3885        73.4255        5071.00        4939.13          71.21
      3886        73.4422        5065.00        4937.32          71.17
      3887        73.4589        5041.00        4936.63          71.00
      3888        73.4756        4862.00        4936.92          69.73
      3889        73.4923        4991.00        4939.75          70.65
      3890        73.5090        4978.00        4943.84          70.55
      3891        73.5257        4979.00        4942.93          70.56
      3892        73.5424        5011.00        4947.25          70.79
      3893        73.5592        4972.00        4952.68          70.51
      3894        73.5759        4941.00        4959.38          70.29
      3895        73.5926        5235.00        4967.56          72.35
      3896        73.6093        4954.00        4977.55          70.38
      3897        73.6260        5015.00        4987.58          70.82
      3898        73.6427        5081.00        5002.98          71.28
      3899        73.6594        5142.00        5022.87          71.71
      3900        73.6761        5103.00        5049.79          71.44
      3901        73.6928        5170.00        5088.54          71.90
      3902        73.7096        5172.00        5147.56          71.92
      3903        73.7263        5436.00        5239.73          73.73
      3904        73.7430        5553.00        5379.82          74.52
      3905        73.7597        5816.00        5589.06          76.26
      3906        73.7764        5911.00        5874.54          76.88
      3907        73.7931        6234.00        6228.46          78.96
      3908        73.8098        6883.00        6609.23          82.96
      3909        73.8265        7169.00        6926.14          84.67
      3910        73.8433        7207.00        7052.83          84.89
      3911        73.8600        7034.00        6927.98          83.87
      3912        73.8767        6701.00        6629.49          81.86
      3913        73.8934        6362.00        6285.53          79.76
      3914        73.9101        5975.00        5995.85          77.30
      3915        73.9268        5705.00        5779.76          75.53
      3916        73.9435        5696.00        5663.08          75.47
      3917        73.9602        5663.00        5646.76          75.25
      3918        73.9770        5835.00        5725.05          76.39
      3919        73.9937        6040.00        5898.26          77.72
      3920        74.0104        6161.00        6156.28          78.49
      3921        74.0271        6684.00        6477.80          81.76
      3922        74.0438        7001.00        6815.20          83.67
      3923        74.0605        7111.00        7113.53          84.33
      3924        74.0772        7316.00        7317.77          85.53
      3925        74.0939        7315.00        7408.17          85.53
      3926        74.1106        7337.00        7377.92          85.66
      3927        74.1273        7386.00        7240.20          85.94
      3928        74.1441        7382.00        7070.33          85.92
      3929        74.1608        7174.00        6987.53          84.70
      3930        74.1775        7202.00        7067.64          84.86
      3931        74.1942        7558.00        7333.84          86.94
      3932        74.2109        7742.00        7756.69          87.99
      3933        74.2276        8159.00        8237.05          90.33
      3934        74.2443        8590.00        8621.79          92.68
      3935        74.2610        8633.00        8780.10          92.91
      3936        74.2777        8367.00        8652.23          91.47
      3937        74.2945        8183.00        8308.65          90.46
      3938        74.3112        7834.00        7857.09          88.51
      3939        74.3279        7337.00        7390.30          85.66
      3940        74.3446        6976.00        6960.71          83.52
      3941        74.3613        6655.00        6620.89          81.58
      3942        74.3780        6600.00        6411.25          81.24
      3943        74.3947        6595.00        6343.33          81.21
      3944        74.4114        6601.00        6403.65          81.25
      3945        74.4281        6585.00        6554.99          81.15
      3946        74.4449        6735.00        6732.60          82.07
      3947        74.4616        6792.00        6850.83          82.41
      3948        74.4783        6779.00        6842.95          82.33
      3949        74.4950        6576.00        6692.00          81.09
      3950        74.5117        6498.00        6439.46          80.61
      3951        74.5284        6186.00        6158.99          78.65
      3952        74.5451        5944.00        5907.55          77.10
      3953        74.5618        5793.00        5711.21          76.11
      3954        74.5786        5705.00        5574.15          75.53
      3955        74.5953        5668.00        5489.52          75.29
      3956        74.6120        5464.00        5446.11          73.92
      3957        74.6287        5624.00        5433.63          74.99
      3958        74.6454        5502.00        5444.78          74.18
      3959        74.6621        5545.00        5475.58          74.46
      3960        74.6788        5524.00        5523.74          74.32
      3961        74.6955        5711.00        5588.67          75.57
      3962        74.7122        5893.00        5670.32          76.77
      3963        74.7290        5960.00        5770.49          77.20
      3964        74.7457        6111.00        5899.17          78.17
      3965        74.7624        6270.00        6083.76          79.18
      3966        74.7791        6685.00        6368.93          81.76
      3967        74.7958        7044.00        6807.75          83.93
      3968        74.8125        7771.00        7441.90          88.15
      3969        74.8292        8898.00        8300.05          94.33
      3970        74.8459        9795.00        9343.95          98.97
      3971        74.8626       10808.00       10447.20         103.96
      3972        74.8793       11310.00       11356.70         106.35
      3973        74.8961       11915.00       11775.90         109.16
      3974        74.9128       11787.00       11653.60         108.57
      3975        74.9295       11806.00       11303.10         108.65
      3976        74.9462       11460.00       11126.70         107.05
      3977        74.9629       11761.00       11401.30         108.45
      3978        74.9796       12506.00       12249.20         111.83
      3979        74.9963       13833.00       13625.10         117.61
      3980        75.0130       15599.00       15278.70         124.90
      3981        75.0298       16927.00       16753.40         130.10
      3982        75.0465       17621.00       17583.80         132.74
      3983        75.0632       17738.00       17548.50         133.18
      3984        75.0799       16673.00       16711.70         129.12
      3985        75.0966       15073.00       15347.60         122.77
      3986        75.1133       13792.00       13751.40         117.44
      3987        75.1300       12016.00       12155.10         109.62
      3988        75.1467       10823.00       10794.20         104.03
      3989        75.1635        9775.00        9850.34          98.87
      3990        75.1802        9416.00        9392.25          97.04
      3991        75.1969        9601.00        9397.31          97.98
      3992        75.2136       10023.00        9769.71         100.11
      3993        75.2303       10323.00       10327.60         101.60
      3994        75.2470       10823.00       10812.20         104.03
      3995        75.2637       10843.00       10970.90         104.13
      3996        75.2804       10671.00       10680.20         103.30
      3997        75.2971        9945.00        9985.72          99.72
      3998        75.3139        9096.00        9074.02          95.37
      3999        75.3306        8260.00        8164.67          90.88
      4000        75.3473        7437.00        7393.90          86.24
      4001        75.3640        6718.00        6812.44          81.96
      4002        75.3807        6413.00        6411.95          80.08
      4003        75.3974        6219.00        6157.71          78.86
      4004        75.4141        5932.00        6000.67          77.02
      4005        75.4308        5880.00        5890.36          76.68
      4006        75.4475        6013.00        5785.66          77.54
      4007        75.4642        5838.00        5676.42          76.41
      4008        75.4810        5687.00        5566.03          75.41
      4009        75.4977        5545.00        5468.33          74.46
      4010        75.5144        5433.00        5387.14          73.71
      4011        75.5311        5396.00        5324.42          73.46
      4012        75.5478        5367.00        5279.56          73.26
      4013        75.5645        5255.00        5250.71          72.49
      4014        75.5812        5290.00        5236.03          72.73
      4015        75.5979        5265.00        5231.73          72.56
      4016        75.6146        5200.00        5234.81          72.11
      4017        75.6314        5113.00        5239.66          71.51
      4018        75.6481        5231.00        5237.92          72.33
      4019        75.6648        5206.00        5221.46          72.15
      4020        75.6815        5120.00        5190.07          71.55
      4021        75.6982        5218.00        5151.19          72.24
      4022        75.7149        5016.00        5112.69          70.82
      4023        75.7316        5187.00        5078.79          72.02
      4024        75.7483        5013.00        5053.68          70.80
      4025        75.7650        5105.00        5032.84          71.45
      4026        75.7818        5032.00        5017.25          70.94
      4027        75.7985        5029.00        5005.62          70.92
      4028        75.8152        5035.00        4996.69          70.96
      4029        75.8319        4942.00        4989.57          70.30
      4030        75.8486        4955.00        4983.69          70.39
      4031        75.8653        4972.00        4978.67          70.51
      4032        75.8820        4975.00        4962.68          70.53
      4033        75.8987        4927.00        4959.24          70.19
      4034        75.9155        4886.00        4956.24          69.90
      4035        75.9322        5032.00        4953.63          70.94
      4036        75.9489        4951.00        4951.25          70.36
      4037        75.9656        4962.00        4950.45          70.44
      4038        75.9823        4894.00        4948.88          69.96
      4039        75.9990        5115.00        4947.61          71.52
      4040        76.0157        4971.00        4946.66          70.51
      4041        76.0324        4957.00        4934.44          70.41
      4042        76.0491        4976.00        4934.51          70.54
      4043        76.0658        4892.00        4923.76          69.94
      4044        76.0826        4946.00        4924.92          70.33
      4045        76.0993        4927.00        4920.72          70.19
      4046        76.1160        4870.00        4923.00          69.79
      4047        76.1327        5040.00        4925.91          70.99
      4048        76.1494        5060.00        4929.61          71.13
      4049        76.1661        4966.00        4934.46          70.47
      4050        76.1828        4914.00        4941.07          70.10
      4051        76.1995        4938.00        4950.64          70.27
      4052        76.2163        4866.00        4965.04          69.76
      4053        76.2330        5105.00        4987.35          71.45
      4054        76.2497        5130.00        5015.85          71.62
      4055        76.2664        5011.00        5066.64          70.79
      4056        76.2831        5279.00        5131.46          72.66
      4057        76.2998        5237.00        5221.49          72.37
      4058        76.3165        5501.00        5324.92          74.17
      4059        76.3332        5462.00        5423.93          73.91
      4060        76.3499        5650.00        5490.31          75.17
      4061        76.3667        5633.00        5498.22          75.05
      4062        76.3834        5658.00        5450.12          75.22
      4063        76.4001        5301.00        5372.94          72.81
      4064        76.4168        5482.00        5291.32          74.04
      4065        76.4335        5383.00        5217.92          73.37
      4066        76.4502        5177.00        5161.06          71.95
      4067        76.4669        5299.00        5125.54          72.79
      4068        76.4836        5329.00        5113.44          73.00
      4069        76.5004        5310.00        5124.31          72.87
      4070        76.5171        5456.00        5155.66          73.86
      4071        76.5338        5349.00        5202.71          73.14
      4072        76.5505        5511.00        5257.29          74.24
      4073        76.5672        5454.00        5305.25          73.85
      4074        76.5839        5722.00        5332.06          75.64
      4075        76.6006        5666.00        5335.03          75.27
      4076        76.6173        5744.00        5329.20          75.79
      4077        76.6340        5611.00        5335.18          74.91
      4078        76.6507        5595.00        5368.96          74.80
      4079        76.6675        5568.00        5440.13          74.62
      4080        76.6842        5665.00        5552.17          75.27
      4081        76.7009        5753.00        5696.01          75.85
      4082        76.7176        5972.00        5844.59          77.28
      4083        76.7343        6013.00        5949.02          77.54
      4084        76.7510        5919.00        5957.41          76.93
      4085        76.7677        5765.00        5861.13          75.93
      4086        76.7844        5667.00        5703.47          75.28
      4087        76.8011        5660.00        5535.34          75.23
      4088        76.8179        5440.00        5388.93          73.76
      4089        76.8346        5331.00        5279.24          73.01
      4090        76.8513        5309.00        5211.36          72.86
      4091        76.8680        5262.00        5184.07          72.54
      4092        76.8847        5357.00        5194.06          73.19
      4093        76.9014        5232.00        5236.34          72.33
      4094        76.9181        5425.00        5312.04          73.65
      4095        76.9348        5367.00        5391.95          73.26
      4096        76.9515        5382.00        5462.64          73.36
      4097        76.9683        5506.00        5494.27          74.20
      4098        76.9850        5378.00        5467.51          73.33
      4099        77.0017        5301.00        5392.52          72.81
      4100        77.0184        5397.00        5297.26          73.46
      4101        77.0351        5200.00        5204.89          72.11
      4102        77.0518        5178.00        5127.45          71.96
      4103        77.0685        5017.00        5068.99          70.83
      4104        77.0852        5058.00        5036.87          71.12
      4105        77.1020        5073.00        5012.26          71.22
      4106        77.1187        5154.00        4997.93          71.79
      4107        77.1354        4980.00        4991.31          70.57
      4108        77.1521        5133.00        4994.32          71.64
      4109        77.1688        5098.00        4997.07          71.40
      4110        77.1855        5012.00        5002.73          70.80
      4111        77.2022        5044.00        5018.79          71.02
      4112        77.2189        5057.00        5029.22          71.11
      4113        77.2356        5209.00        5043.88          72.17
      4114        77.2523        5250.00        5065.39          72.46
      4115        77.2691        5283.00        5095.20          72.68
      4116        77.2858        5254.00        5132.02          72.48
      4117        77.3025        5476.00        5170.53          74.00
      4118        77.3192        5397.00        5212.60          73.46
      4119        77.3359        5449.00        5222.03          73.82
      4120        77.3526        5343.00        5205.84          73.10
      4121        77.3693        5242.00        5171.91          72.40
      4122        77.3860        5172.00        5141.28          71.92
      4123        77.4028        5271.00        5109.00          72.60
      4124        77.4195        5235.00        5085.31          72.35
      4125        77.4362        5055.00        5081.96          71.10
      4126        77.4529        5163.00        5078.68          71.85
      4127        77.4696        5120.00        5084.62          71.55
      4128        77.4863        5142.00        5098.68          71.71
      4129        77.5030        5314.00        5119.36          72.90
      4130        77.5197        5302.00        5144.27          72.81
      4131        77.5364        5388.00        5173.26          73.40
      4132        77.5532        5447.00        5192.62          73.80
      4133        77.5699        5229.00        5201.75          72.31
      4134        77.5866        5376.00        5199.98          73.32
      4135        77.6033        5433.00        5193.38          73.71
      4136        77.6200        5179.00        5192.04          71.97
      4137        77.6367        5252.00        5192.86          72.47
      4138        77.6534        5222.00        5200.64          72.26
      4139        77.6701        5269.00        5219.14          72.59
      4140        77.6869        5339.00        5242.59          73.07
      4141        77.7036        5387.00        5274.08          73.40
      4142        77.7203        5468.00        5314.16          73.95
      4143        77.7370        5566.00        5364.20          74.61
      4144        77.7537        5733.00        5427.08          75.72
      4145        77.7704        5673.00        5506.36          75.32
      4146        77.7871        5848.00        5616.12          76.47
      4147        77.8038        6123.00        5769.45          78.25
      4148        77.8205        6117.00        5990.21          78.21
      4149        77.8372        6682.00        6305.41          81.74
      4150        77.8540        7090.00        6741.72          84.20
      4151        77.8707        7757.00        7312.17          88.07
      4152        77.8874        8643.00        8003.13          92.97
      4153        77.9041        9618.00        8753.13          98.07
      4154        77.9208       10422.00        9430.04         102.09
      4155        77.9375       10771.00        9832.91         103.78
      4156        77.9542       10703.00        9819.08         103.46
      4157        77.9709       10272.00        9462.53         101.35
      4158        77.9876        9549.00        8990.48          97.72
      4159        78.0044        9082.00        8618.35          95.30
      4160        78.0211        9141.00        8483.86          95.61
      4161        78.0378        9165.00        8656.25          95.73
      4162        78.0545        9892.00        9144.88          99.46
      4163        78.0712       10961.00        9894.60         104.69
      4164        78.0879       11825.00       10775.50         108.74
      4165        78.1046       13042.00       11579.10         114.20
      4166        78.1213       13460.00       12115.30         116.02
      4167        78.1380       13404.00       12368.40         115.78
      4168        78.1548       13734.00       12464.70         117.19
      4169        78.1715       13204.00       12505.50         114.91
      4170        78.1882       13330.00       12534.60         115.46
      4171        78.2049       13754.00       12578.20         117.28
      4172        78.2216       13767.00       12600.10         117.33
      4173        78.2383       13634.00       12510.60         116.76
      4174        78.2550       13993.00       12328.60         118.29
      4175        78.2717       13525.00       12233.40         116.30
      4176        78.2885       13466.00       12404.00         116.04
      4177        78.3052       13830.00       12889.00         117.60
      4178        78.3219       14602.00       13573.40         120.84
      4179        78.3386       15352.00       14198.70         123.90
      4180        78.3553       15967.00       14523.70         126.36
      4181        78.3720       15696.00       14560.70         125.28
      4182        78.3887       15371.00       14513.60         123.98
      4183        78.4054       15177.00       14513.20         123.19
      4184        78.4221       14980.00       14522.70         122.39
      4185        78.4389       14774.00       14448.30         121.55
      4186        78.4556       14689.00       14206.50         121.20
      4187        78.4723       14510.00       13692.80         120.46
      4188        78.4890       13883.00       12881.30         117.83
      4189        78.5057       12887.00       11933.30         113.52
      4190        78.5224       11682.00       11080.60         108.08
      4191        78.5391       10924.00       10462.80         104.52
      4192        78.5558       10410.00       10090.50         102.03
      4193        78.5725       10166.00        9873.91         100.83
      4194        78.5893        9985.00        9698.39          99.93
      4195        78.6060        9942.00        9518.77          99.71
      4196        78.6227        9497.00        9353.77          97.45
      4197        78.6394        9180.00        9205.62          95.81
      4198        78.6561        9057.00        9035.06          95.17
      4199        78.6728        8786.00        8812.79          93.73
      4200        78.6895        8853.00        8537.17          94.09
      4201        78.7062        8311.00        8193.34          91.16
      4202        78.7229        7751.00        7769.06          88.04
      4203        78.7397        7402.00        7304.49          86.03
      4204        78.7564        6988.00        6868.38          83.59
      4205        78.7731        6716.00        6507.52          81.95
      4206        78.7898        6196.00        6236.73          78.71
      4207        78.8065        5914.00        6048.07          76.90
      4208        78.8232        5958.00        5918.91          77.19
      4209        78.8399        5641.00        5821.68          75.11
      4210        78.8566        5665.00        5733.73          75.27
      4211        78.8734        5643.00        5644.70          75.12
      4212        78.8901        5445.00        5555.58          73.79
      4213        78.9068        5408.00        5473.62          73.54
      4214        78.9235        5363.00        5405.68          73.23
      4215        78.9402        5231.00        5354.88          72.33
      4216        78.9569        5463.00        5321.61          73.91
      4217        78.9736        5225.00        5296.15          72.28
      4218        78.9903        5200.00        5293.37          72.11
      4219        79.0070        5338.00        5301.86          73.06
      4220        79.0238        5411.00        5318.51          73.56
      4221        79.0405        5293.00        5340.30          72.75
      4222        79.0572        5424.00        5363.22          73.65
      4223        79.0739        5271.00        5382.50          72.60
      4224        79.0906        5345.00        5392.10          73.11
      4225        79.1073        5427.00        5387.80          73.67
      4226        79.1240        5378.00        5369.73          73.33
      4227        79.1407        5363.00        5341.93          73.23
      4228        79.1574        5363.00        5301.27          73.23
      4229        79.1741        5352.00        5267.12          73.16
      4230        79.1909        5357.00        5235.56          73.19
      4231        79.2076        5237.00        5203.58          72.37
      4232        79.2243        5181.00        5180.79          71.98
      4233        79.2410        5255.00        5163.30          72.49
      4234        79.2577        5241.00        5150.87          72.39
      4235        79.2744        5307.00        5134.73          72.85
      4236        79.2911        5294.00        5130.65          72.76
      4237        79.3078        5328.00        5129.23          72.99
      4238        79.3245        5186.00        5129.79          72.01
      4239        79.3413        5252.00        5132.00          72.47
      4240        79.3580        5170.00        5135.90          71.90
      4241        79.3747        5115.00        5141.59          71.52
      4242        79.3914        5097.00        5136.95          71.39
      4243        79.4081        5139.00        5144.60          71.69
      4244        79.4248        5106.00        5149.94          71.46
      4245        79.4415        5258.00        5147.49          72.51
      4246        79.4582        5121.00        5132.85          71.56
      4247        79.4749        5064.00        5100.97          71.16
      4248        79.4917        5011.00        5070.16          70.79
      4249        79.5084        5114.00        5036.08          71.51
      4250        79.5251        4924.00        5004.46          70.17
      4251        79.5418        5006.00        4985.27          70.75
      4252        79.5585        4982.00        4972.44          70.58
      4253        79.5752        4913.00        4965.61          70.09
      4254        79.5919        5074.00        4964.09          71.23
      4255        79.6086        4801.00        4967.13          69.29
      4256        79.6254        4925.00        4969.84          70.18
      4257        79.6421        4875.00        4978.17          69.82
      4258        79.6588        4907.00        4987.49          70.05
      4259        79.6755        5031.00        4994.11          70.93
      4260        79.6922        4979.00        4995.29          70.56
      4261        79.7089        4914.00        4987.88          70.10
      4262        79.7256        4853.00        4980.78          69.66
      4263        79.7423        4990.00        4974.34          70.64
      4264        79.7590        4793.00        4968.26          69.23
      4265        79.7758        4976.00        4970.80          70.54
      4266        79.7925        4900.00        4980.25          70.00
      4267        79.8092        4869.00        4997.37          69.78
      4268        79.8259        4978.00        5021.85          70.55
      4269        79.8426        5036.00        5052.57          70.96
      4270        79.8593        5149.00        5083.49          71.76
      4271        79.8760        5152.00        5107.63          71.78
      4272        79.8927        5125.00        5115.45          71.59
      4273        79.9094        5026.00        5103.74          70.89
      4274        79.9262        5150.00        5077.19          71.76
      4275        79.9429        4944.00        5045.67          70.31
      4276        79.9596        5079.00        5015.88          71.27
      4277        79.9763        4842.00        4991.67          69.58
      4278        79.9930        4858.00        4974.59          69.70
      4279        80.0097        4918.00        4964.87          70.13
      4280        80.0264        4921.00        4962.07          70.15
      4281        80.0431        4900.00        4965.45          70.00
      4282        80.0598        4951.00        4974.02          70.36
      4283        80.0766        4851.00        4986.83          69.65
      4284        80.0933        4790.00        5000.86          69.21
      4285        80.1100        4871.00        5012.91          69.79
      4286        80.1267        5050.00        5018.36          71.06
      4287        80.1434        5090.00        5014.24          71.34
      4288        80.1601        5101.00        5001.92          71.42
      4289        80.1768        5191.00        4986.06          72.05
      4290        80.1935        5040.00        4970.26          70.99
      4291        80.2103        4974.00        4956.66          70.53
      4292        80.2270        4961.00        4946.06          70.43
      4293        80.2437        4947.00        4938.46          70.33
      4294        80.2604        4832.00        4933.44          69.51
      4295        80.2771        4973.00        4930.22          70.52
      4296        80.2938        4719.00        4928.26          68.69
      4297        80.3105        4946.00        4927.06          70.33
      4298        80.3272        4837.00        4926.28          69.55
      4299        80.3439        4807.00        4925.72          69.33
      4300        80.3606        4791.00        4925.26          69.22
      4301        80.3774        4940.00        4924.85          70.29
      4302        80.3941        4857.00        4924.48          69.69
      4303        80.4108        4788.00        4924.15          69.20
      4304        80.4275        4937.00        4923.87          70.26
      4305        80.4442        4812.00        4923.66          69.37
      4306        80.4609        4746.00        4923.56          68.89
      4307        80.4776        4851.00        4923.58          69.65
      4308        80.4943        4785.00        4923.71          69.17
      4309        80.5110        4769.00        4923.75          69.06
      4310        80.5278        4831.00        4924.14          69.51
      4311        80.5445        4881.00        4924.65          69.86
      4312        80.5612        4882.00        4925.25          69.87
      4313        80.5779        4853.00        4925.95          69.66
      4314        80.5946        4811.00        4926.75          69.36
      4315        80.6113        4872.00        4927.67          69.80
      4316        80.6280        4919.00        4928.71          70.14
      4317        80.6447        4923.00        4929.94          70.16
      4318        80.6614        4877.00        4931.41          69.84
      4319        80.6782        4752.00        4933.20          68.93
      4320        80.6949        4735.00        4935.45          68.81
      4321        80.7116        4973.00        4938.38          70.52
      4322        80.7283        4791.00        4942.38          69.22
      4323        80.7450        4770.00        4948.11          69.07
      4324        80.7617        4775.00        4956.56          69.10
      4325        80.7784        4789.00        4969.67          69.20
      4326        80.7951        4954.00        4989.53          70.38
      4327        80.8119        4937.00        5018.69          70.26
      4328        80.8286        4938.00        5059.13          70.27
      4329        80.8453        4862.00        5111.45          69.73
      4330        80.8620        4987.00        5173.47          70.62
      4331        80.8787        5072.00        5238.41          71.22
      4332        80.8954        5142.00        5293.28          71.71
      4333        80.9121        5134.00        5320.45          71.65
      4334        80.9288        5162.00        5308.51          71.85
      4335        80.9455        5187.00        5263.45          72.02
      4336        80.9623        5222.00        5202.28          72.26
      4337        80.9790        4913.00        5141.21          70.09
      4338        80.9957        5096.00        5089.08          71.39
      4339        81.0124        5002.00        5050.16          70.72
      4340        81.0291        4856.00        5025.65          69.68
      4341        81.0458        4969.00        5015.07          70.49
      4342        81.0625        4935.00        5017.15          70.25
      4343        81.0792        4848.00        5030.24          69.63
      4344        81.0959        4978.00        5052.09          70.55
      4345        81.1127        4930.00        5079.37          70.21
      4346        81.1294        4893.00        5106.54          69.95
      4347        81.1461        4911.00        5125.32          70.08
      4348        81.1628        5073.00        5127.44          71.22
      4349        81.1795        4914.00        5111.14          70.10
      4350        81.1962        5018.00        5082.82          70.84
      4351        81.2129        4940.00        5050.94          70.29
      4352        81.2296        4923.00        5021.97          70.16
      4353        81.2463        4834.00        4998.83          69.53
      4354        81.2631        4924.00        4982.52          70.17
      4355        81.2798        4916.00        4972.71          70.11
      4356        81.2965        4972.00        4968.88          70.51
      4357        81.3132        4863.00        4967.91          69.74
      4358        81.3299        5013.00        4968.58          70.80
      4359        81.3466        4975.00        4969.17          70.53
      4360        81.3633        5010.00        4968.91          70.78
      4361        81.3800        4919.00        4968.55          70.14
      4362        81.3968        4819.00        4969.53          69.42
      4363        81.4135        5031.00        4973.09          70.93
      4364        81.4302        4814.00        4979.99          69.38
      4365        81.4469        4920.00        4990.62          70.14
      4366        81.4636        4931.00        5004.62          70.22
      4367        81.4803        4983.00        5021.55          70.59
      4368        81.4970        4892.00        5040.48          69.94
      4369        81.5137        4930.00        5060.17          70.21
      4370        81.5304        5038.00        5079.55          70.98
      4371        81.5471        5065.00        5096.30          71.17
      4372        81.5639        5077.00        5109.16          71.25
      4373        81.5806        5122.00        5116.67          71.57
      4374        81.5973        5169.00        5117.89          71.90
      4375        81.6140        5181.00        5112.92          71.98
      4376        81.6307        5051.00        5102.94          71.07
      4377        81.6474        5091.00        5089.64          71.35
      4378        81.6641        5222.00        5074.80          72.26
      4379        81.6808        5049.00        5060.16          71.06
      4380        81.6975        5085.00        5046.95          71.31
      4381        81.7143        5009.00        5036.16          70.77
      4382        81.7310        4860.00        5028.27          69.71
      4383        81.7477        4991.00        5023.24          70.65
      4384        81.7644        5038.00        5020.61          70.98
      4385        81.7811        4964.00        5019.63          70.46
      4386        81.7978        4978.00        5019.35          70.55
      4387        81.8145        4872.00        5018.85          69.80
      4388        81.8312        4887.00        5017.33          69.91
      4389        81.8479        4891.00        5014.25          69.94
      4390        81.8647        4817.00        5009.36          69.40
      4391        81.8814        4850.00        5002.74          69.64
      4392        81.8981        4939.00        4994.72          70.28
      4393        81.9148        4928.00        4985.77          70.20
      4394        81.9315        4834.00        4976.50          69.53
      4395        81.9482        4832.00        4967.44          69.51
      4396        81.9649        4934.00        4959.09          70.24
      4397        81.9816        4749.00        4951.77          68.91
      4398        81.9984        4826.00        4944.89          69.47
      4399        82.0151        4726.00        4940.12          68.75
      4400        82.0318        4746.00        4936.60          68.89
      4401        82.0485        4830.00        4934.20          69.50
      4402        82.0652        4740.00        4932.77          68.85
      4403        82.0819        4846.00        4932.14          69.61
      4404        82.0986        4773.00        4932.17          69.09
      4405        82.1153        4786.00        4932.75          69.18
      4406        82.1320        4838.00        4933.80          69.56
      4407        82.1488        4673.00        4935.31          68.36
      4408        82.1655        4759.00        4937.29          68.99
      4409        82.1822        4817.00        4939.87          69.40
      4410        82.1989        4847.00        4943.31          69.62
      4411        82.2156        4900.00        4948.07          70.00
      4412        82.2323        4843.00        4954.98          69.59
      4413        82.2490        4716.00        4964.90          68.67
      4414        82.2657        4821.00        4980.42          69.43
      4415        82.2824        4797.00        5003.16          69.26
      4416        82.2992        4938.00        5035.10          70.27
      4417        82.3159        4889.00        5077.37          69.92
      4418        82.3326        4935.00        5129.16          70.25
      4419        82.3493        5035.00        5186.73          70.96
      4420        82.3660        5101.00        5241.81          71.42
      4421        82.3827        5099.00        5281.08          71.41
      4422        82.3994        5202.00        5291.00          72.12
      4423        82.4161        5105.00        5268.87          71.45
      4424        82.4328        4969.00        5225.81          70.49
      4425        82.4496        4983.00        5178.41          70.59
      4426        82.4663        4961.00        5134.71          70.43
      4427        82.4830        4844.00        5101.73          69.60
      4428        82.4997        4826.00        5081.16          69.47
      4429        82.5164        4967.00        5071.95          70.48
      4430        82.5331        4873.00        5071.37          69.81
      4431        82.5498        4809.00        5076.32          69.35
      4432        82.5665        4688.00        5085.05          68.47
      4433        82.5833        4848.00        5097.46          69.63
      4434        82.6000        5059.00        5112.94          71.13
      4435        82.6167        4938.00        5128.29          70.27
      4436        82.6334        4976.00        5137.39          70.54
      4437        82.6501        5114.00        5134.07          71.51
      4438        82.6668        4956.00        5117.53          70.40
      4439        82.6835        4906.00        5093.29          70.04
      4440        82.7002        4984.00        5068.82          70.60
      4441        82.7169        4881.00        5047.19          69.86
      4442        82.7337        4719.00        5031.05          68.69
      4443        82.7504        4898.00        5020.57          69.99
      4444        82.7671        4928.00        5014.08          70.20
      4445        82.7838        4952.00        5009.60          70.37
      4446        82.8005        4821.00        5004.97          69.43
      4447        82.8172        4767.00        4999.05          69.04
      4448        82.8339        4680.00        4992.01          68.41
      4449        82.8506        4846.00        4984.56          69.61
      4450        82.8673        4759.00        4977.34          68.99
      4451        82.8840        4838.00        4970.76          69.56
      4452        82.9008        4880.00        4965.63          69.86
      4453        82.9175        4827.00        4960.89          69.48
      4454        82.9342        4785.00        4957.13          69.17
      4455        82.9509        4744.00        4954.29          68.88
      4456        82.9676        4766.00        4952.28          69.04
      4457        82.9843        4829.00        4950.97          69.49
      4458        83.0010        4751.00        4950.30          68.93
      4459        83.0177        4696.00        4949.96          68.53
      4460        83.0344        4798.00        4949.86          69.27
      4461        83.0512        4784.00        4949.86          69.17
      4462        83.0679        4757.00        4949.81          68.97
      4463        83.0846        4560.00        4949.65          67.53
      4464        83.1013        4719.00        4949.31          68.69
      4465        83.1180        4789.00        4948.81          69.20
      4466        83.1347        4699.00        4948.20          68.55
      4467        83.1514        4767.00        4947.84          69.04
      4468        83.1681        4762.00        4947.25          69.01
      4469        83.1849        4796.00        4946.83          69.25
      4470        83.2016        4859.00        4946.65          69.71
      4471        83.2183        4745.00        4946.80          68.88
      4472        83.2350        4905.00        4947.34          70.04
      4473        83.2517        4804.00        4948.33          69.31
      4474        83.2684        4705.00        4949.81          68.59
      4475        83.2851        4730.00        4951.85          68.78
      4476        83.3018        4720.00        4954.50          68.70
      4477        83.3186        4810.00        4957.88          69.35
      4478        83.3353        4845.00        4962.18          69.61
      4479        83.3520        4759.00        4967.73          68.99
      4480        83.3687        4772.00        4975.16          69.08
      4481        83.3854        4701.00        4985.56          68.56
      4482        83.4021        4620.00        5000.73          67.97
      4483        83.4188        4885.00        5023.42          69.89
      4484        83.4355        4942.00        5057.31          70.30
      4485        83.4522        4861.00        5106.73          69.72
      4486        83.4689        4928.00        5175.44          70.20
      4487        83.4857        4934.00        5265.43          70.24
      4488        83.5024        5115.00        5374.84          71.52
      4489        83.5191        5012.00        5494.83          70.80
      4490        83.5358        5242.00        5609.47          72.40
      4491        83.5525        5272.00        5690.66          72.61
      4492        83.5692        5334.00        5710.30          73.03
      4493        83.5859        5425.00        5661.09          73.65
      4494        83.6026        5220.00        5563.78          72.25
      4495        83.6193        5101.00        5448.71          71.42
      4496        83.6361        4983.00        5338.88          70.59
      4497        83.6528        5018.00        5247.40          70.84
      4498        83.6695        4877.00        5180.18          69.84
      4499        83.6862        5002.00        5138.96          70.72
      4500        83.7029        5009.00        5122.68          70.77
      4501        83.7196        5009.00        5129.29          70.77
      4502        83.7363        4991.00        5157.21          70.65
      4503        83.7530        4856.00        5201.09          69.68
      4504        83.7698        5113.00        5256.54          71.51
      4505        83.7865        5082.00        5315.74          71.29
      4506        83.8032        5188.00        5365.34          72.03
      4507        83.8199        5227.00        5390.52          72.30
      4508        83.8366        5214.00        5384.21          72.21
      4509        83.8533        4983.00        5352.83          70.59
      4510        83.8700        5005.00        5309.16          70.75
      4511        83.8867        5042.00        5263.47          71.01
      4512        83.9034        4930.00        5223.02          70.21
      4513        83.9202        5058.00        5193.95          71.12
      4514        83.9369        4839.00        5180.95          69.56
      4515        83.9536        4934.00        5185.61          70.24
      4516        83.9703        5113.00        5206.32          71.51
      4517        83.9870        4872.00        5238.59          69.80
      4518        84.0037        4992.00        5272.80          70.65
      4519        84.0204        4987.00        5297.18          70.62
      4520        84.0371        4889.00        5300.20          69.92
      4521        84.0538        5067.00        5278.98          71.18
      4522        84.0705        4859.00        5241.27          69.71
      4523        84.0873        5056.00        5198.04          71.11
      4524        84.1040        5009.00        5157.16          70.77
      4525        84.1207        4934.00        5122.58          70.24
      4526        84.1374        4919.00        5095.12          70.14
      4527        84.1541        4818.00        5074.51          69.41
      4528        84.1708        4972.00        5060.85          70.51
      4529        84.1875        4872.00        5054.71          69.80
      4530        84.2042        4985.00        5056.32          70.60
      4531        84.2209        4948.00        5065.04          70.34
      4532        84.2377        4814.00        5079.10          69.38
      4533        84.2544        4963.00        5095.09          70.45
      4534        84.2711        4829.00        5107.74          69.49
      4535        84.2878        4859.00        5111.00          69.71
      4536        84.3045        4864.00        5101.71          69.74
      4537        84.3212        4810.00        5082.16          69.35
      4538        84.3379        4806.00        5057.64          69.33
      4539        84.3546        4855.00        5032.85          69.68
      4540        84.3714        4735.00        5010.81          68.81
      4541        84.3881        4893.00        4992.37          69.95
      4542        84.4048        4872.00        4978.01          69.80
      4543        84.4215        4782.00        4967.35          69.15
      4544        84.4382        4753.00        4959.69          68.94
      4545        84.4549        4763.00        4954.30          69.01
      4546        84.4716        4769.00        4950.54          69.06
      4547        84.4883        4548.00        4947.92          67.44
      4548        84.5051        5000.00        4946.13          70.71
      4549        84.5218        4775.00        4944.96          69.10
      4550        84.5385        4684.00        4944.31          68.44
      4551        84.5552        4784.00        4944.09          69.17
      4552        84.5719        4718.00        4944.26          68.69
      4553        84.5886        4757.00        4944.82          68.97
      4554        84.6053        4795.00        4945.77          69.25
      4555        84.6220        4729.00        4947.25          68.77
      4556        84.6387        4758.00        4949.12          68.98
      4557        84.6554        4864.00        4951.61          69.74
      4558        84.6722        4824.00        4955.03          69.46
      4559        84.6889        4652.00        4959.70          68.21
      4560        84.7056        4792.00        4964.93          69.22
      4561        84.7223        4784.00        4974.97          69.17
      4562        84.7390        4838.00        4990.08          69.56
      4563        84.7557        4831.00        5012.65          69.51
      4564        84.7724        4742.00        5045.41          68.86
      4565        84.7891        4899.00        5090.77          69.99
      4566        84.8058        4922.00        5149.90          70.16
      4567        84.8226        4992.00        5226.92          70.65
      4568        84.8393        5068.00        5306.39          71.19
      4569        84.8560        5005.00        5382.73          70.75
      4570        84.8727        5006.00        5439.06          70.75
      4571        84.8894        5183.00        5457.12          71.99
      4572        84.9061        4957.00        5430.13          70.41
      4573        84.9228        5069.00        5369.29          71.20
      4574        84.9395        4935.00        5293.76          70.25
      4575        84.9562        4869.00        5218.76          69.78
      4576        84.9730        4935.00        5154.81          70.25
      4577        84.9897        4951.00        5106.07          70.36
      4578        85.0064        4817.00        5074.07          69.40
      4579        85.0231        4871.00        5058.41          69.79
      4580        85.0398        4913.00        5058.20          70.09
      4581        85.0565        4782.00        5071.70          69.15
      4582        85.0732        4904.00        5096.88          70.03
      4583        85.0899        4834.00        5133.48          69.53
      4584        85.1067        4957.00        5171.68          70.41
      4585        85.1234        4850.00        5206.81          69.64
      4586        85.1401        5054.00        5229.30          71.09
      4587        85.1568        5016.00        5231.55          70.82
      4588        85.1735        5083.00        5213.28          71.30
      4589        85.1902        4960.00        5183.31          70.43
      4590        85.2069        4890.00        5149.65          69.93
      4591        85.2236        4990.00        5118.24          70.64
      4592        85.2403        4958.00        5093.45          70.41
      4593        85.2570        4894.00        5072.70          69.96
      4594        85.2738        4936.00        5057.22          70.26
      4595        85.2905        4819.00        5047.85          69.42
      4596        85.3072        4849.00        5039.47          69.63
      4597        85.3239        4863.00        5033.03          69.74
      4598        85.3406        4892.00        5028.04          69.94
      4599        85.3573        4845.00        5024.45          69.61
      4600        85.3740        4784.00        5022.62          69.17
      4601        85.3907        4902.00        5023.17          70.01
      4602        85.4074        4867.00        5026.84          69.76
      4603        85.4242        4827.00        5034.32          69.48
      4604        85.4409        4897.00        5045.67          69.98
      4605        85.4576        4926.00        5061.30          70.19
      4606        85.4743        4870.00        5079.89          69.79
      4607        85.4910        5003.00        5100.10          70.73
      4608        85.5077        4957.00        5116.51          70.41
      4609        85.5244        4921.00        5125.47          70.15
      4610        85.5411        4794.00        5125.21          69.24
      4611        85.5579        4761.00        5115.03          69.00
      4612        85.5746        4957.00        5099.98          70.41
      4613        85.5913        5015.00        5084.64          70.82
      4614        85.6080        4978.00        5070.66          70.55
      4615        85.6247        5003.00        5060.17          70.73
      4616        85.6414        4831.00        5053.99          69.51
      4617        85.6581        4859.00        5052.46          69.71
      4618        85.6748        4978.00        5055.77          70.55
      4619        85.6916        4946.00        5063.85          70.33
      4620        85.7083        4979.00        5076.75          70.56
      4621        85.7250        4947.00        5094.41          70.33
      4622        85.7417        4936.00        5116.56          70.26
      4623        85.7584        5022.00        5142.56          70.87
      4624        85.7751        5203.00        5171.44          72.13
      4625        85.7918        5129.00        5202.71          71.62
      4626        85.8085        5201.00        5238.16          72.12
      4627        85.8252        5202.00        5284.02          72.12
      4628        85.8419        5372.00        5347.98          73.29
      4629        85.8587        5474.00        5443.89          73.99
      4630        85.8754        5581.00        5586.10          74.71
      4631        85.8921        5914.00        5790.07          76.90
      4632        85.9088        6224.00        6066.64          78.89
      4633        85.9255        6551.00        6414.09          80.94
      4634        85.9422        6992.00        6816.98          83.62
      4635        85.9589        7435.00        7235.57          86.23
      4636        85.9756        7771.00        7597.23          88.15
      4637        85.9923        8014.00        7807.98          89.52
      4638        86.0091        8075.00        7796.19          89.86
      4639        86.0258        7723.00        7574.53          87.88
      4640        86.0425        7201.00        7228.07          84.86
      4641        86.0592        6711.00        6848.75          81.92
      4642        86.0759        6251.00        6502.67          79.06
      4643        86.0926        5880.00        6223.81          76.68
      4644        86.1093        5810.00        6021.19          76.22
      4645        86.1260        5895.00        5894.23          76.78
      4646        86.1427        5718.00        5836.11          75.62
      4647        86.1595        5735.00        5841.77          75.73
      4648        86.1762        5834.00        5908.04          76.38
      4649        86.1929        6120.00        6028.25          78.23
      4650        86.2096        6244.00        6190.33          79.02
      4651        86.2263        6444.00        6370.96          80.27
      4652        86.2430        6658.00        6533.76          81.60
      4653        86.2597        6750.00        6633.55          82.16
      4654        86.2764        6797.00        6644.01          82.44
      4655        86.2932        6736.00        6582.09          82.07
      4656        86.3099        6476.00        6496.77          80.47
      4657        86.3266        6321.00        6438.53          79.50
      4658        86.3433        6434.00        6438.51          80.21
      4659        86.3600        6400.00        6507.32          80.00
      4660        86.3767        6381.00        6632.79          79.88
      4661        86.3934        6630.00        6783.18          81.42
      4662        86.4101        6835.00        6912.85          82.67
      4663        86.4268        6904.00        6982.66          83.09
      4664        86.4436        6857.00        6971.29          82.81
      4665        86.4603        6749.00        6871.04          82.15
      4666        86.4770        6548.00        6686.49          80.92
      4667        86.4937        6254.00        6446.34          79.08
      4668        86.5104        6188.00        6192.96          78.66
      4669        86.5271        5914.00        5962.57          76.90
      4670        86.5438        5856.00        5777.26          76.52
      4671        86.5605        5666.00        5646.85          75.27
      4672        86.5772        5694.00        5573.79          75.46
      4673        86.5939        5555.00        5555.72          74.53
      4674        86.6107        5500.00        5587.48          74.16
      4675        86.6274        5687.00        5660.74          75.41
      4676        86.6441        5805.00        5763.87          76.19
      4677        86.6608        5792.00        5879.64          76.11
      4678        86.6775        5900.00        5987.09          76.81
      4679        86.6942        5972.00        6068.44          77.28
      4680        86.7109        5938.00        6112.66          77.06
      4681        86.7276        6110.00        6113.95          78.17
      4682        86.7444        6051.00        6068.81          77.79
      4683        86.7611        5755.00        5982.35          75.86
      4684        86.7778        5851.00        5866.50          76.49
      4685        86.7945        5695.00        5736.31          75.47
      4686        86.8112        5601.00        5607.89          74.84
      4687        86.8279        5470.00        5494.56          73.96
      4688        86.8446        5453.00        5403.94          73.84
      4689        86.8613        5298.00        5338.60          72.79
      4690        86.8781        5253.00        5298.83          72.48
      4691        86.8948        5359.00        5284.50          73.21
      4692        86.9115        5340.00        5295.51          73.08
      4693        86.9282        5264.00        5331.51          72.55
      4694        86.9449        5371.00        5391.13          73.29
      4695        86.9616        5333.00        5471.15          73.03
      4696        86.9783        5575.00        5566.09          74.67
      4697        86.9950        5746.00        5662.12          75.80
      4698        87.0117        5619.00        5746.30          74.96
      4699        87.0285        5726.00        5807.93          75.67
      4700        87.0452        5604.00        5845.75          74.86
      4701        87.0619        5722.00        5864.96          75.64
      4702        87.0786        5684.00        5871.12          75.39
      4703        87.0953        5517.00        5865.30          74.28
      4704        87.1120        5509.00        5845.96          74.22
      4705        87.1287        5542.00        5816.25          74.44
      4706        87.1454        5461.00        5785.33          73.90
      4707        87.1621        5631.00        5761.65          75.04
      4708        87.1788        5493.00        5743.83          74.11
      4709        87.1956        5462.00        5746.29          73.91
      4710        87.2123        5514.00        5769.68          74.26
      4711        87.2290        5479.00        5818.37          74.02
      4712        87.2457        5651.00        5889.64          75.17
      4713        87.2624        5684.00        5967.63          75.39
      4714        87.2791        5868.00        6028.35          76.60
      4715        87.2958        5813.00        6045.58          76.24
      4716        87.3125        5875.00        6009.92          76.65
      4717        87.3292        5684.00        5934.35          75.39
      4718        87.3460        5646.00        5839.96          75.14
      4719        87.3627        5573.00        5742.94          74.65
      4720        87.3794        5421.00        5651.34          73.63
      4721        87.3961        5324.00        5570.10          72.97
      4722        87.4128        5296.00        5504.14          72.77
      4723        87.4295        5234.00        5456.40          72.35
      4724        87.4462        5103.00        5426.34          71.44
      4725        87.4629        5174.00        5409.80          71.93
      4726        87.4797        5193.00        5412.01          72.06
      4727        87.4964        5103.00        5430.50          71.44
      4728        87.5131        5100.00        5462.62          71.41
      4729        87.5298        5131.00        5500.78          71.63
      4730        87.5465        5288.00        5532.95          72.72
      4731        87.5632        5266.00        5546.22          72.57
      4732        87.5799        5264.00        5534.72          72.55
      4733        87.5966        5343.00        5501.87          73.10
      4734        87.6133        5181.00        5454.35          71.98
      4735        87.6301        5233.00        5401.57          72.34
      4736        87.6468        5156.00        5344.87          71.81
      4737        87.6635        5138.00        5285.97          71.68
      4738        87.6802        5060.00        5233.63          71.13
      4739        87.6969        5079.00        5189.52          71.27
      4740        87.7136        4967.00        5155.22          70.48
      4741        87.7303        5134.00        5130.56          71.65
      4742        87.7470        5041.00        5114.46          71.00
      4743        87.7637        5019.00        5105.36          70.84
      4744        87.7804        4990.00        5101.39          70.64
      4745        87.7972        4973.00        5100.40          70.52
      4746        87.8139        5022.00        5100.01          70.87
      4747        87.8306        4927.00        5098.83          70.19
      4748        87.8473        4971.00        5096.88          70.51
      4749        87.8640        4918.00        5094.87          70.13
      4750        87.8807        5021.00        5092.00          70.86
      4751        87.8974        4923.00        5088.88          70.16
      4752        87.9141        5109.00        5083.06          71.48
      4753        87.9309        5068.00        5073.19          71.19
      4754        87.9476        4977.00        5062.81          70.55
      4755        87.9643        5048.00        5053.06          71.05
      4756        87.9810        4891.00        5045.39          69.94
      4757        87.9977        4953.00        5042.50          70.38
      4758        88.0144        4816.00        5045.49          69.40
      4759        88.0311        4962.00        5056.39          70.44
      4760        88.0478        4984.00        5077.70          70.60
      4761        88.0646        4920.00        5112.23          70.14
      4762        88.0813        5161.00        5162.55          71.84
      4763        88.0980        4931.00        5230.07          70.22
      4764        88.1147        5093.00        5313.87          71.37
      4765        88.1314        5187.00        5409.26          72.02
      4766        88.1481        5274.00        5506.35          72.62
      4767        88.1648        5238.00        5588.10          72.37
      4768        88.1815        5318.00        5633.16          72.92
      4769        88.1982        5413.00        5625.94          73.57
      4770        88.2150        5235.00        5568.32          72.35
      4771        88.2317        5325.00        5480.32          72.97
      4772        88.2484        5215.00        5382.20          72.21
      4773        88.2651        5235.00        5290.04          72.35
      4774        88.2818        5106.00        5213.13          71.46
      4775        88.2985        5098.00        5156.13          71.40
      4776        88.3152        5040.00        5119.99          70.99
      4777        88.3319        5094.00        5106.27          71.37
      4778        88.3486        5157.00        5113.47          71.81
      4779        88.3653        5073.00        5140.12          71.22
      4780        88.3821        5006.00        5183.89          70.75
      4781        88.3988        5158.00        5242.52          71.82
      4782        88.4155        5164.00        5309.99          71.86
      4783        88.4322        5199.00        5377.33          72.10
      4784        88.4489        5364.00        5432.20          73.24
      4785        88.4656        5442.00        5461.67          73.77
      4786        88.4823        5403.00        5458.08          73.51
      4787        88.4990        5238.00        5422.45          72.37
      4788        88.5157        5275.00        5362.90          72.63
      4789        88.5325        5151.00        5293.39          71.77
      4790        88.5492        5205.00        5223.56          72.15
      4791        88.5659        5152.00        5160.65          71.78
      4792        88.5826        4973.00        5107.64          70.52
      4793        88.5993        4915.00        5065.69          70.11
      4794        88.6160        4839.00        5034.56          69.56
      4795        88.6327        4982.00        5013.21          70.58
      4796        88.6494        4985.00        5000.32          70.60
      4797        88.6661        4855.00        4994.37          69.68
      4798        88.6829        4802.00        4994.38          69.30
      4799        88.6996        4838.00        4998.50          69.56
      4800        88.7163        4944.00        5006.83          70.31
      4801        88.7330        4888.00        5014.22          69.91
      4802        88.7497        4895.00        5020.39          69.96
      4803        88.7664        4999.00        5022.73          70.70
      4804        88.7831        5013.00        5019.07          70.80
      4805        88.7998        4943.00        5010.45          70.31
      4806        88.8166        4939.00        4998.20          70.28
      4807        88.8333        4800.00        4984.74          69.28
      4808        88.8500        4789.00        4971.51          69.20
      4809        88.8667        4973.00        4962.06          70.52
      4810        88.8834        4837.00        4954.01          69.55
      4811        88.9001        4834.00        4947.00          69.53
      4812        88.9168        4902.00        4942.58          70.01
      4813        88.9335        4955.00        4940.80          70.39
      4814        88.9502        4833.00        4941.41          69.52
      4815        88.9669        4896.00        4943.89          69.97
      4816        88.9837        4784.00        4947.45          69.17
      4817        89.0004        4955.00        4951.81          70.39
      4818        89.0171        4855.00        4953.85          69.68
      4819        89.0338        4905.00        4953.10          70.04
      4820        89.0505        4848.00        4949.79          69.63
      4821        89.0672        4799.00        4944.16          69.27
      4822        89.0839        4779.00        4937.69          69.13
      4823        89.1006        4798.00        4931.40          69.27
      4824        89.1174        4984.00        4925.95          70.60
      4825        89.1341        4899.00        4921.56          69.99
      4826        89.1508        4850.00        4919.75          69.64
      4827        89.1675        4889.00        4920.32          69.92
      4828        89.1842        4926.00        4921.80          70.19
      4829        89.2009        4800.00        4923.01          69.28
      4830        89.2176        4760.00        4925.46          68.99
      4831        89.2343        4918.00        4929.04          70.13
      4832        89.2510        4874.00        4934.78          69.81
      4833        89.2678        4873.00        4939.89          69.81
      4834        89.2845        4877.00        4944.97          69.84
      4835        89.3012        4941.00        4949.21          70.29
      4836        89.3179        4809.00        4951.87          69.35
      4837        89.3346        4857.00        4952.70          69.69
      4838        89.3513        4894.00        4951.52          69.96
      4839        89.3680        4821.00        4950.50          69.43
      4840        89.3847        4880.00        4948.38          69.86
      4841        89.4015        4842.00        4945.25          69.58
      4842        89.4182        4809.00        4941.61          69.35
      4843        89.4349        4908.00        4940.67          70.06
      4844        89.4516        4838.00        4941.99          69.56
      4845        89.4683        4911.00        4945.23          70.08
      4846        89.4850        4931.00        4951.06          70.22
      4847        89.5017        4953.00        4957.36          70.38
      4848        89.5184        4853.00        4965.23          69.66
      4849        89.5351        4896.00        4974.86          69.97
      4850        89.5518        4773.00        4984.22          69.09
      4851        89.5686        4935.00        4992.75          70.25
      4852        89.5853        4923.00        4998.93          70.16
      4853        89.6020        4952.00        5002.05          70.37
      4854        89.6187        4943.00        5002.42          70.31
      4855        89.6354        5015.00        5001.13          70.82
      4856        89.6521        5064.00        5000.27          71.16
      4857        89.6688        4997.00        4999.85          70.69
      4858        89.6855        4950.00        5000.55          70.36
      4859        89.7022        4961.00        5002.95          70.43
      4860        89.7190        5011.00        5008.94          70.79
      4861        89.7357        4955.00        5018.07          70.39
      4862        89.7524        5251.00        5031.73          72.46
      4863        89.7691        5121.00        5051.26          71.56
      4864        89.7858        4993.00        5076.61          70.66
      4865        89.8025        5162.00        5110.29          71.85
      4866        89.8192        5167.00        5154.60          71.88
      4867        89.8359        5283.00        5212.20          72.68
      4868        89.8526        5393.00        5285.34          73.44
      4869        89.8694        5436.00        5375.64          73.73
      4870        89.8861        5543.00        5483.91          74.45
      4871        89.9028        5604.00        5610.16          74.86
      4872        89.9195        5811.00        5751.54          76.23
      4873        89.9362        6063.00        5900.01          77.87
      4874        89.9529        6163.00        6040.49          78.50
      4875        89.9696        6294.00        6153.45          79.33
      4876        89.9863        6384.00        6227.17          79.90
      4877        90.0031        6245.00        6271.02          79.03
      4878        90.0198        6366.00        6312.39          79.79
      4879        90.0365        6350.00        6380.62          79.69
      4880        90.0532        6504.00        6494.06          80.65
      4881        90.0699        6635.00        6650.56          81.46
      4882        90.0866        6854.00        6833.82          82.79
      4883        90.1033        6897.00        7007.54          83.05
      4884        90.1200        7096.00        7124.16          84.24
      4885        90.1367        6917.00        7145.49          83.17
      4886        90.1535        6905.00        7066.06          83.10
      4887        90.1702        6597.00        6914.98          81.22
      4888        90.1869        6360.00        6736.79          79.75
      4889        90.2036        6362.00        6569.73          79.76
      4890        90.2203        6378.00        6436.19          79.86
      4891        90.2370        6258.00        6343.22          79.11
      4892        90.2537        6357.00        6287.11          79.73
      4893        90.2704        6187.00        6261.84          78.66
      4894        90.2871        6108.00        6268.68          78.15
      4895        90.3039        6357.00        6316.53          79.73
      4896        90.3206        6492.00        6416.41          80.57
      4897        90.3373        6562.00        6577.33          81.01
      4898        90.3540        6748.00        6800.00          82.15
      4899        90.3707        6914.00        7075.77          83.15
      4900        90.3874        7239.00        7378.60          85.08
      4901        90.4041        7609.00        7665.27          87.23
      4902        90.4208        7767.00        7883.02          88.13
      4903        90.4375        7879.00        7989.73          88.76
      4904        90.4543        7759.00        7970.44          88.09
      4905        90.4710        7500.00        7848.11          86.60
      4906        90.4877        7218.00        7667.69          84.96
      4907        90.5044        7047.00        7472.15          83.95
      4908        90.5211        6823.00        7289.70          82.60
      4909        90.5378        6972.00        7139.73          83.50
      4910        90.5545        6659.00        7041.74          81.60
      4911        90.5712        6739.00        7012.85          82.09
      4912        90.5880        6887.00        7059.36          82.99
      4913        90.6047        7047.00        7168.65          83.95
      4914        90.6214        7285.00        7314.56          85.35
      4915        90.6381        7386.00        7458.35          85.94
      4916        90.6548        7394.00        7564.82          85.99
      4917        90.6715        7363.00        7621.27          85.81
      4918        90.6882        7438.00        7638.41          86.24
      4919        90.7049        7373.00        7629.38          85.87
      4920        90.7216        7371.00        7592.47          85.85
      4921        90.7383        7325.00        7512.15          85.59
      4922        90.7551        6901.00        7376.21          83.07
      4923        90.7718        6873.00        7189.22          82.90
      4924        90.7885        6701.00        6972.77          81.86
      4925        90.8052        6458.00        6752.50          80.36
      4926        90.8219        6381.00        6547.93          79.88
      4927        90.8386        6057.00        6374.72          77.83
      4928        90.8553        6041.00        6243.97          77.72
      4929        90.8720        5964.00        6161.23          77.23
      4930        90.8887        6100.00        6121.10          78.10
      4931        90.9055        5931.00        6109.99          77.01
      4932        90.9222        5970.00        6106.31          77.27
      4933        90.9389        5938.00        6088.30          77.06
      4934        90.9556        5851.00        6045.26          76.49
      4935        90.9723        5854.00        5982.06          76.51
      4936        90.9890        5762.00        5910.65          75.91
      4937        91.0057        5617.00        5839.99          74.95
      4938        91.0224        5634.00        5770.92          75.06
      4939        91.0391        5665.00        5698.47          75.27
      4940        91.0559        5461.00        5618.09          73.90
      4941        91.0726        5408.00        5531.44          73.54
      4942        91.0893        5430.00        5445.44          73.69
      4943        91.1060        5343.00        5366.53          73.10
      4944        91.1227        5421.00        5299.05          73.63
      4945        91.1394        5171.00        5245.19          71.91
      4946        91.1561        5137.00        5206.51          71.67
      4947        91.1728        5195.00        5184.12          72.08
      4948        91.1896        5245.00        5179.25          72.42
      4949        91.2063        5280.00        5193.20          72.66
      4950        91.2230        5301.00        5227.13          72.81
      4951        91.2397        5280.00        5279.92          72.66
      4952        91.2564        5517.00        5354.45          74.28
      4953        91.2731        5539.00        5445.85          74.42
      4954        91.2898        5581.00        5547.79          74.71
      4955        91.3065        5487.00        5649.09          74.07
      4956        91.3232        5593.00        5732.95          74.79
      4957        91.3400        5760.00        5779.93          75.89
      4958        91.3567        5805.00        5777.25          76.19
      4959        91.3734        5659.00        5727.71          75.23
      4960        91.3901        5615.00        5645.24          74.93
      4961        91.4068        5502.00        5552.34          74.18
      4962        91.4235        5427.00        5463.06          73.67
      4963        91.4402        5202.00        5382.13          72.12
      4964        91.4569        5317.00        5316.07          72.92
      4965        91.4736        5260.00        5266.55          72.53
      4966        91.4904        5165.00        5233.56          71.87
      4967        91.5071        5227.00        5216.59          72.30
      4968        91.5238        5292.00        5215.32          72.75
      4969        91.5405        5311.00        5228.36          72.88
      4970        91.5572        5189.00        5256.71          72.03
      4971        91.5739        5244.00        5297.34          72.42
      4972        91.5906        5323.00        5346.20          72.96
      4973        91.6073        5385.00        5397.41          73.38
      4974        91.6240        5498.00        5442.06          74.15
      4975        91.6408        5493.00        5472.10          74.11
      4976        91.6575        5595.00        5485.05          74.80
      4977        91.6742        5472.00        5485.18          73.97
      4978        91.6909        5463.00        5477.94          73.91
      4979        91.7076        5454.00        5467.25          73.85
      4980        91.7243        5413.00        5457.73          73.57
      4981        91.7410        5409.00        5440.69          73.55
      4982        91.7577        5466.00        5425.46          73.93
      4983        91.7745        5326.00        5408.47          72.98
      4984        91.7912        5392.00        5402.36          73.43
      4985        91.8079        5436.00        5403.49          73.73
      4986        91.8246        5511.00        5417.70          74.24
      4987        91.8413        5421.00        5440.31          73.63
      4988        91.8580        5432.00        5463.53          73.70
      4989        91.8747        5406.00        5476.40          73.53
      4990        91.8914        5395.00        5469.08          73.45
      4991        91.9081        5236.00        5439.86          72.36
      4992        91.9249        5286.00        5394.35          72.70
      4993        91.9416        5181.00        5345.87          71.98
      4994        91.9583        5190.00        5304.67          72.04
      4995        91.9750        5306.00        5275.19          72.84
      4996        91.9917        5291.00        5259.68          72.74
      4997        92.0084        5197.00        5256.67          72.09
      4998        92.0251        5294.00        5263.35          72.76
      4999        92.0418        5294.00        5277.21          72.76
      5000        92.0585        5258.00        5294.48          72.51
      5001        92.0752        5338.00        5313.24          73.06
      5002        92.0920        5180.00        5331.31          71.97
      5003        92.1087        5277.00        5342.77          72.64
      5004        92.1254        5313.00        5346.11          72.89
      5005        92.1421        5336.00        5341.49          73.05
      5006        92.1588        5139.00        5329.78          71.69
      5007        92.1755        5217.00        5308.37          72.23
      5008        92.1922        5107.00        5277.24          71.46
      5009        92.2089        5041.00        5238.87          71.00
      5010        92.2256        5090.00        5197.50          71.34
      5011        92.2424        5091.00        5159.09          71.35
      5012        92.2591        5092.00        5127.09          71.36
      5013        92.2758        5065.00        5102.18          71.17
      5014        92.2925        5099.00        5084.68          71.41
      5015        92.3092        5182.00        5074.53          71.99
      5016        92.3259        5140.00        5071.13          71.69
      5017        92.3426        5041.00        5072.55          71.00
      5018        92.3593        5087.00        5078.29          71.32
      5019        92.3760        4936.00        5084.99          70.26
      5020        92.3928        5135.00        5089.84          71.66
      5021        92.4095        5094.00        5090.91          71.37
      5022        92.4262        5069.00        5088.20          71.20
      5023        92.4429        5198.00        5084.08          72.10
      5024        92.4596        4918.00        5080.37          70.13
      5025        92.4763        4892.00        5079.54          69.94
      5026        92.4930        5050.00        5083.17          71.06
      5027        92.5097        5115.00        5092.48          71.52
      5028        92.5265        5021.00        5108.68          70.86
      5029        92.5432        5266.00        5133.35          72.57
      5030        92.5599        5264.00        5168.87          72.55
      5031        92.5766        5335.00        5218.97          73.04
      5032        92.5933        5221.00        5288.78          72.26
      5033        92.6100        5316.00        5384.74          72.91
      5034        92.6267        5455.00        5513.34          73.86
      5035        92.6434        5713.00        5678.09          75.58
      5036        92.6601        5799.00        5882.74          76.15
      5037        92.6769        6058.00        6120.92          77.83
      5038        92.6936        6400.00        6379.02          80.00
      5039        92.7103        6614.00        6631.68          81.33
      5040        92.7270        6938.00        6840.27          83.29
      5041        92.7437        6753.00        6959.78          82.18
      5042        92.7604        6748.00        6960.40          82.15
      5043        92.7771        6512.00        6848.34          80.70
      5044        92.7938        6526.00        6661.28          80.78
      5045        92.8105        6350.00        6444.13          79.69
      5046        92.8273        5972.00        6231.80          77.28
      5047        92.8440        5845.00        6046.48          76.45
      5048        92.8607        5757.00        5901.85          75.87
      5049        92.8774        5873.00        5806.71          76.64
      5050        92.8941        5842.00        5767.55          76.43
      5051        92.9108        5780.00        5790.65          76.03
      5052        92.9275        5854.00        5883.01          76.51
      5053        92.9442        6032.00        6051.21          77.67
      5054        92.9609        6206.00        6303.20          78.78
      5055        92.9777        6616.00        6641.58          81.34
      5056        92.9944        6976.00        7061.08          83.52
      5057        93.0111        7443.00        7544.34          86.27
      5058        93.0278        7963.00        8056.14          89.24
      5059        93.0445        8433.00        8542.85          91.83
      5060        93.0612        8924.00        8941.19          94.47
      5061        93.0779        9194.00        9191.44          95.89
      5062        93.0946        9292.00        9253.74          96.39
      5063        93.1114        8976.00        9117.46          94.74
      5064        93.1281        8577.00        8803.59          92.61
      5065        93.1448        7968.00        8359.69          89.26
      5066        93.1615        7447.00        7854.41          86.30
      5067        93.1782        7022.00        7352.43          83.80
      5068        93.1949        6548.00        6902.04          80.92
      5069        93.2116        6303.00        6534.22          79.39
      5070        93.2283        5907.00        6260.67          76.86
      5071        93.2450        6021.00        6084.05          77.60
      5072        93.2617        5755.00        5999.88          75.86
      5073        93.2785        5972.00        5999.81          77.28
      5074        93.2952        6063.00        6072.75          77.87
      5075        93.3119        6043.00        6205.57          77.74
      5076        93.3286        6252.00        6381.61          79.07
      5077        93.3453        6328.00        6578.75          79.55
      5078        93.3620        6656.00        6769.37          81.58
      5079        93.3787        6807.00        6920.68          82.50
      5080        93.3954        6988.00        7005.10          83.59
      5081        93.4121        6953.00        7008.03          83.38
      5082        93.4289        6688.00        6930.50          81.78
      5083        93.4456        6602.00        6788.29          81.25
      5084        93.4623        6266.00        6604.08          79.16
      5085        93.4790        6173.00        6399.01          78.57
      5086        93.4957        6019.00        6187.38          77.58
      5087        93.5124        5767.00        5981.19          75.94
      5088        93.5291        5438.00        5790.64          73.74
      5089        93.5458        5317.00        5624.38          72.92
      5090        93.5625        5355.00        5486.81          73.18
      5091        93.5793        5241.00        5377.71          72.39
      5092        93.5960        5345.00        5294.13          73.11
      5093        93.6127        5234.00        5232.13          72.35
      5094        93.6294        5022.00        5187.32          70.87
      5095        93.6461        5026.00        5155.97          70.89
      5096        93.6628        5157.00        5135.23          71.81
      5097        93.6795        5036.00        5123.37          70.96
      5098        93.6962        5130.00        5119.55          71.62
      5099        93.7130        5035.00        5122.91          70.96
      5100        93.7297        5151.00        5131.85          71.77
      5101        93.7464        5132.00        5144.38          71.64
      5102        93.7631        5109.00        5156.27          71.48
      5103        93.7798        5200.00        5162.86          72.11
      5104        93.7965        5184.00        5159.74          72.00
      5105        93.8132        5089.00        5145.31          71.34
      5106        93.8299        5156.00        5121.69          71.81
      5107        93.8466        4973.00        5092.94          70.52
      5108        93.8634        5167.00        5062.99          71.88
      5109        93.8801        4990.00        5034.54          70.64
      5110        93.8968        4956.00        5009.24          70.40
      5111        93.9135        5023.00        4988.06          70.87
      5112        93.9302        4931.00        4971.31          70.22
      5113        93.9469        4838.00        4959.04          69.56
      5114        93.9636        5000.00        4950.99          70.71
      5115        93.9803        4930.00        4946.71          70.21
      5116        93.9970        5051.00        4945.64          71.07
      5117        94.0138        4934.00        4947.08          70.24
      5118        94.0305        4910.00        4950.09          70.07
      5119        94.0472        5035.00        4953.50          70.96
      5120        94.0639        4902.00        4955.84          70.01
      5121        94.0806        5105.00        4952.27          71.45
      5122        94.0973        4987.00        4949.18          70.62
      5123        94.1140        5121.00        4943.43          71.56
      5124        94.1307        5079.00        4936.13          71.27
      5125        94.1474        5066.00        4930.22          71.18
      5126        94.1642        4980.00        4922.94          70.57
      5127        94.1809        4812.00        4916.51          69.37
      5128        94.1976        4990.00        4911.46          70.64
      5129        94.2143        4944.00        4907.78          70.31
      5130        94.2310        4983.00        4905.81          70.59
      5131        94.2477        4846.00        4905.69          69.61
      5132        94.2644        5020.00        4907.73          70.85
      5133        94.2811        4946.00        4912.36          70.33
      5134        94.2979        4955.00        4920.23          70.39
      5135        94.3146        4971.00        4932.17          70.51
      5136        94.3313        4955.00        4949.19          70.39
      5137        94.3480        5254.00        4972.33          72.48
      5138        94.3647        5243.00        5002.48          72.41
      5139        94.3814        5186.00        5040.32          72.01
      5140        94.3981        5097.00        5084.11          71.39
      5141        94.4148        5409.00        5136.68          73.55
      5142        94.4315        5376.00        5191.02          73.32
      5143        94.4482        5537.00        5250.48          74.41
      5144        94.4650        5411.00        5299.61          73.56
      5145        94.4817        5595.00        5336.61          74.80
      5146        94.4984        5375.00        5350.31          73.31
      5147        94.5151        5414.00        5337.23          73.58
      5148        94.5318        5457.00        5300.36          73.87
      5149        94.5485        5369.00        5247.36          73.27
      5150        94.5652        5255.00        5187.60          72.49
      5151        94.5819        5213.00        5129.20          72.20
      5152        94.5986        5105.00        5077.80          71.45
      5153        94.6154        5118.00        5036.84          71.54
      5154        94.6321        5169.00        5008.11          71.90
      5155        94.6488        4990.00        4992.44          70.64
      5156        94.6655        5043.00        4989.88          71.01
      5157        94.6822        5021.00        4999.87          70.86
      5158        94.6989        5064.00        5021.54          71.16
      5159        94.7156        5246.00        5053.59          72.43
      5160        94.7323        5113.00        5092.06          71.51
      5161        94.7490        5242.00        5136.87          72.40
      5162        94.7658        5151.00        5179.63          71.77
      5163        94.7825        5181.00        5216.77          71.98
      5164        94.7992        5081.00        5239.03          71.28
      5165        94.8159        5088.00        5240.73          71.33
      5166        94.8326        5174.00        5220.84          71.93
      5167        94.8493        5147.00        5183.03          71.74
      5168        94.8660        5148.00        5136.15          71.75
      5169        94.8827        5035.00        5086.78          70.96
      5170        94.8995        5032.00        5040.15          70.94
      5171        94.9162        4983.00        4999.66          70.59
      5172        94.9329        5020.00        4966.90          70.85
      5173        94.9496        4905.00        4942.21          70.04
      5174        94.9663        4808.00        4925.25          69.34
      5175        94.9830        4856.00        4915.05          69.68
      5176        94.9997        4954.00        4910.47          70.38
      5177        95.0164        4956.00        4910.44          70.40
      5178        95.0331        4862.00        4913.88          69.73
      5179        95.0499        4885.00        4919.66          69.89
      5180        95.0666        4853.00        4926.71          69.66
      5181        95.0833        4944.00        4933.83          70.31
      5182        95.1000        4922.00        4939.55          70.16
      5183        95.1167        4791.00        4942.30          69.22
      5184        95.1334        4760.00        4941.03          68.99
      5185        95.1501        4944.00        4935.49          70.31
      5186        95.1668        4972.00        4927.64          70.51
      5187        95.1835        4955.00        4918.75          70.39
      5188        95.2003        4860.00        4910.97          69.71
      5189        95.2170        4722.00        4903.76          68.72
      5190        95.2337        4944.00        4898.48          70.31
      5191        95.2504        4945.00        4895.52          70.32
      5192        95.2671        4937.00        4895.11          70.26
      5193        95.2838        4848.00        4897.53          69.63
      5194        95.3005        4905.00        4903.25          70.04
      5195        95.3172        4935.00        4913.03          70.25
      5196        95.3339        4907.00        4928.21          70.05
      5197        95.3507        4924.00        4950.69          70.17
      5198        95.3674        5074.00        4983.00          71.23
      5199        95.3841        4997.00        5028.06          70.69
      5200        95.4008        5002.00        5088.80          70.72
      5201        95.4175        5136.00        5167.37          71.67
      5202        95.4342        5290.00        5264.54          72.73
      5203        95.4509        5318.00        5378.60          72.92
      5204        95.4676        5383.00        5503.67          73.37
      5205        95.4844        5423.00        5630.02          73.64
      5206        95.5011        5486.00        5741.85          74.07
      5207        95.5178        5586.00        5819.17          74.74
      5208        95.5345        5639.00        5842.86          75.09
      5209        95.5512        5687.00        5806.93          75.41
      5210        95.5679        5589.00        5721.48          74.76
      5211        95.5846        5371.00        5606.76          73.29
      5212        95.6013        5248.00        5482.51          72.44
      5213        95.6180        5205.00        5363.43          72.15
      5214        95.6348        5406.00        5259.15          73.53
      5215        95.6515        5254.00        5174.89          72.48
      5216        95.6682        5130.00        5113.00          71.62
      5217        95.6849        4983.00        5073.62          70.59
      5218        95.7016        5141.00        5055.86          71.70
      5219        95.7183        5076.00        5058.08          71.25
      5220        95.7350        5015.00        5078.20          70.82
      5221        95.7517        5218.00        5113.87          72.24
      5222        95.7684        5141.00        5161.34          71.70
      5223        95.7851        5114.00        5216.27          71.51
      5224        95.8019        5206.00        5271.95          72.15
      5225        95.8186        5113.00        5319.34          71.51
      5226        95.8353        5328.00        5347.91          72.99
      5227        95.8520        5082.00        5349.26          71.29
      5228        95.8687        5213.00        5321.63          72.20
      5229        95.8854        5136.00        5272.47          71.67
      5230        95.9021        5285.00        5211.57          72.70
      5231        95.9188        4993.00        5147.84          70.66
      5232        95.9355        5115.00        5087.94          71.52
      5233        95.9523        5174.00        5035.77          71.93
      5234        95.9690        5105.00        4993.14          71.45
      5235        95.9857        5075.00        4960.37          71.24
      5236        96.0024        5153.00        4936.60          71.78
      5237        96.0191        5027.00        4920.25          70.90
      5238        96.0358        4946.00        4909.43          70.33
      5239        96.0525        5088.00        4902.43          71.33
      5240        96.0692        4907.00        4897.29          70.05
      5241        96.0860        4997.00        4893.34          70.69
      5242        96.1027        5006.00        4890.39          70.75
      5243        96.1194        5049.00        4888.61          71.06
      5244        96.1361        5052.00        4888.30          71.08
      5245        96.1528        4971.00        4889.61          70.51
      5246        96.1695        4978.00        4892.62          70.55
      5247        96.1862        5108.00        4897.03          71.47
      5248        96.2029        5000.00        4902.69          70.71
      5249        96.2197        4887.00        4913.51          69.91
      5250        96.2364        5069.00        4921.53          71.20
      5251        96.2531        5139.00        4929.51          71.69
      5252        96.2698        4979.00        4936.53          70.56
      5253        96.2865        4935.00        4941.65          70.25
      5254        96.3032        4968.00        4944.22          70.48
      5255        96.3199        5053.00        4944.21          71.08
      5256        96.3366        5072.00        4942.14          71.22
      5257        96.3533        5072.00        4938.78          71.22
      5258        96.3700        5011.00        4935.02          70.79
      5259        96.3868        5053.00        4931.52          71.08
      5260        96.4035        5027.00        4929.30          70.90
      5261        96.4202        5029.00        4929.70          70.92
      5262        96.4369        4990.00        4934.20          70.64
      5263        96.4536        5070.00        4944.31          71.20
      5264        96.4703        5088.00        4961.46          71.33
      5265        96.4870        5195.00        4986.82          72.08
      5266        96.5037        4988.00        5020.97          70.63
      5267        96.5204        5181.00        5063.57          71.98
      5268        96.5372        5235.00        5114.99          72.35
      5269        96.5539        5342.00        5168.98          73.09
      5270        96.5706        5232.00        5222.07          72.33
      5271        96.5873        5259.00        5266.56          72.52
      5272        96.6040        5409.00        5294.17          73.55
      5273        96.6207        5447.00        5298.39          73.80
      5274        96.6374        5388.00        5278.61          73.40
      5275        96.6541        5323.00        5240.60          72.96
      5276        96.6708        5212.00        5193.07          72.19
      5277        96.6876        5238.00        5144.14          72.37
      5278        96.7043        5288.00        5100.02          72.72
      5279        96.7210        4987.00        5064.81          70.62
      5280        96.7377        5187.00        5041.06          72.02
      5281        96.7544        5010.00        5030.02          70.78
      5282        96.7711        5118.00        5031.83          71.54
      5283        96.7878        5146.00        5045.65          71.74
      5284        96.8045        5039.00        5069.70          70.99
      5285        96.8213        5114.00        5101.12          71.51
      5286        96.8380        5243.00        5135.89          72.41
      5287        96.8547        5239.00        5168.89          72.38
      5288        96.8714        5204.00        5195.01          72.14
      5289        96.8881        5257.00        5210.65          72.51
      5290        96.9048        5279.00        5214.36          72.66
      5291        96.9215        5292.00        5206.12          72.75
      5292        96.9382        5316.00        5183.71          72.91
      5293        96.9549        5290.00        5153.29          72.73
      5294        96.9716        5244.00        5117.10          72.42
      5295        96.9884        5171.00        5080.00          71.91
      5296        97.0051        5296.00        5046.04          72.77
      5297        97.0218        4926.00        5017.84          70.19
      5298        97.0385        5003.00        4996.74          70.73
      5299        97.0552        5096.00        4982.93          71.39
      5300        97.0719        5058.00        4975.87          71.12
      5301        97.0886        5330.00        4974.62          73.01
      5302        97.1053        5090.00        4978.18          71.34
      5303        97.1220        5067.00        4985.78          71.18
      5304        97.1388        5037.00        4996.82          70.97
      5305        97.1555        5079.00        5010.53          71.27
      5306        97.1722        5022.00        5025.91          70.87
      5307        97.1889        5059.00        5042.16          71.13
      5308        97.2056        5137.00        5059.30          71.67
      5309        97.2223        5109.00        5078.52          71.48
      5310        97.2390        5185.00        5101.55          72.01
      5311        97.2557        5132.00        5128.80          71.64
      5312        97.2725        5225.00        5161.29          72.28
      5313        97.2892        5254.00        5196.13          72.48
      5314        97.3059        5229.00        5229.12          72.31
      5315        97.3226        5406.00        5254.69          73.53
      5316        97.3393        5441.00        5267.85          73.76
      5317        97.3560        5250.00        5267.15          72.46
      5318        97.3727        5298.00        5255.84          72.79
      5319        97.3894        5365.00        5240.04          73.25
      5320        97.4062        5207.00        5225.99          72.16
      5321        97.4229        5414.00        5219.89          73.58
      5322        97.4396        5266.00        5223.92          72.57
      5323        97.4563        5242.00        5242.45          72.40
      5324        97.4730        5464.00        5278.38          73.92
      5325        97.4897        5570.00        5334.50          74.63
      5326        97.5064        5765.00        5413.96          75.93
      5327        97.5231        5727.00        5520.83          75.68
      5328        97.5398        5705.00        5659.08          75.53
      5329        97.5565        6030.00        5830.23          77.65
      5330        97.5733        6078.00        6031.62          77.96
      5331        97.5900        6559.00        6253.64          80.99
      5332        97.6067        6537.00        6478.58          80.85
      5333        97.6234        6854.00        6678.61          82.79
      5334        97.6401        6767.00        6818.64          82.26
      5335        97.6568        6677.00        6866.12          81.71
      5336        97.6735        6685.00        6808.11          81.76
      5337        97.6902        6610.00        6659.65          81.30
      5338        97.7069        6483.00        6454.19          80.52
      5339        97.7237        6121.00        6226.88          78.24
      5340        97.7404        6066.00        6005.19          77.88
      5341        97.7571        5890.00        5808.11          76.75
      5342        97.7738        5696.00        5644.84          75.47
      5343        97.7905        5681.00        5520.25          75.37
      5344        97.8072        5475.00        5434.30          73.99
      5345        97.8239        5528.00        5384.77          74.35
      5346        97.8406        5560.00        5368.30          74.57
      5347        97.8573        5608.00        5382.08          74.89
      5348        97.8741        5707.00        5423.56          75.54
      5349        97.8908        5802.00        5489.75          76.17
      5350        97.9075        5812.00        5575.94          76.24
      5351        97.9242        5978.00        5672.58          77.32
      5352        97.9409        5990.00        5768.67          77.40
      5353        97.9576        5951.00        5847.99          77.14
      5354        97.9743        6129.00        5893.00          78.29
      5355        97.9910        5981.00        5890.98          77.34
      5356        98.0078        5797.00        5840.70          76.14
      5357        98.0245        5636.00        5752.32          75.07
      5358        98.0412        5701.00        5639.83          75.50
      5359        98.0579        5609.00        5519.46          74.89
      5360        98.0746        5560.00        5401.82          74.57
      5361        98.0913        5536.00        5295.10          74.40
      5362        98.1080        5341.00        5203.69          73.08
      5363        98.1247        5281.00        5129.31          72.67
      5364        98.1414        5149.00        5071.35          71.76
      5365        98.1581        5247.00        5028.38          72.44
      5366        98.1749        5048.00        4998.28          71.05
      5367        98.1916        5093.00        4979.17          71.37
      5368        98.2083        4971.00        4969.71          70.51
      5369        98.2250        5044.00        4969.10          71.02
      5370        98.2417        5151.00        4975.85          71.77
      5371        98.2584        5044.00        4989.88          71.02
      5372        98.2751        5132.00        5010.54          71.64
      5373        98.2918        5122.00        5036.81          71.57
      5374        98.3085        5153.00        5066.77          71.78
      5375        98.3253        5126.00        5098.68          71.60
      5376        98.3420        5031.00        5128.68          70.93
      5377        98.3587        5017.00        5152.48          70.83
      5378        98.3754        5102.00        5164.93          71.43
      5379        98.3921        5026.00        5163.39          70.89
      5380        98.4088        5083.00        5146.99          71.30
      5381        98.4255        4980.00        5118.73          70.57
      5382        98.4422        4972.00        5083.67          70.51
      5383        98.4590        4996.00        5046.92          70.68
      5384        98.4757        4992.00        5012.09          70.65
      5385        98.4924        5066.00        4981.87          71.18
      5386        98.5091        5026.00        4957.71          70.89
      5387        98.5258        4973.00        4940.35          70.52
      5388        98.5425        5185.00        4929.86          72.01
      5389        98.5592        5093.00        4926.15          71.37
      5390        98.5759        5026.00        4928.70          70.89
      5391        98.5927        5050.00        4936.98          71.06
      5392        98.6094        4982.00        4950.36          70.58
      5393        98.6261        5136.00        4968.17          71.67
      5394        98.6428        5085.00        4989.45          71.31
      5395        98.6595        5016.00        5013.58          70.82
      5396        98.6762        5110.00        5039.06          71.48
      5397        98.6929        5178.00        5064.27          71.96
      5398        98.7096        5174.00        5087.57          71.93
      5399        98.7263        5254.00        5108.06          72.48
      5400        98.7430        5080.00        5126.55          71.27
      5401        98.7598        5121.00        5145.60          71.56
      5402        98.7765        5284.00        5168.49          72.69
      5403        98.7932        5264.00        5197.32          72.55
      5404        98.8099        5247.00        5234.80          72.44
      5405        98.8266        5422.00        5280.04          73.63
      5406        98.8433        5438.00        5330.77          73.74
      5407        98.8600        5495.00        5382.20          74.13
      5408        98.8767        5689.00        5426.89          75.43
      5409        98.8934        5603.00        5455.12          74.85
      5410        98.9102        5583.00        5458.76          74.72
      5411        98.9269        5602.00        5434.90          74.85
      5412        98.9436        5510.00        5387.86          74.23
      5413        98.9603        5494.00        5326.53          74.12
      5414        98.9770        5355.00        5260.10          73.18
      5415        98.9937        5265.00        5195.65          72.56
      5416        99.0104        5221.00        5138.26          72.26
      5417        99.0271        5186.00        5090.76          72.01
      5418        99.0438        5164.00        5054.52          71.86
      5419        99.0606        5300.00        5029.91          72.80
      5420        99.0773        5178.00        5016.59          71.96
      5421        99.0940        5172.00        5013.84          71.92
      5422        99.1107        5183.00        5017.59          71.99
      5423        99.1274        5230.00        5033.43          72.32
      5424        99.1441        5146.00        5057.40          71.74
      5425        99.1608        5311.00        5088.38          72.88
      5426        99.1775        5211.00        5125.07          72.19
      5427        99.1943        5174.00        5165.64          71.93
      5428        99.2110        5355.00        5207.58          73.18
      5429        99.2277        5373.00        5247.68          73.30
      5430        99.2444        5478.00        5283.91          74.01
      5431        99.2611        5471.00        5316.72          73.97
      5432        99.2778        5534.00        5349.25          74.39
      5433        99.2945        5538.00        5386.32          74.42
      5434        99.3112        5644.00        5429.35          75.13
      5435        99.3279        5619.00        5478.29          74.96
      5436        99.3447        5697.00        5528.92          75.48
      5437        99.3614        5808.00        5573.37          76.21
      5438        99.3781        5712.00        5601.48          75.58
      5439        99.3948        5694.00        5604.14          75.46
      5440        99.4115        5654.00        5577.86          75.19
      5441        99.4282        5613.00        5526.66          74.92
      5442        99.4449        5558.00        5458.26          74.55
      5443        99.4616        5477.00        5386.00          74.01
      5444        99.4783        5486.00        5315.99          74.07
      5445        99.4950        5408.00        5253.09          73.54
      5446        99.5118        5226.00        5199.87          72.29
      5447        99.5285        5265.00        5156.83          72.56
      5448        99.5452        5279.00        5123.99          72.66
      5449        99.5619        5162.00        5101.48          71.85
      5450        99.5786        5275.00        5089.48          72.63
      5451        99.5953        5312.00        5087.71          72.88
      5452        99.6120        5230.00        5095.31          72.32
      5453        99.6287        5300.00        5110.99          72.80
      5454        99.6455        5377.00        5132.41          73.33
      5455        99.6622        5312.00        5157.56          72.88
      5456        99.6789        5280.00        5183.60          72.66
      5457        99.6956        5420.00        5206.46          73.62
      5458        99.7123        5300.00        5221.24          72.80
      5459        99.7290        5504.00        5223.56          74.19
      5460        99.7457        5438.00        5211.71          73.74
      5461        99.7624        5393.00        5187.62          73.44
      5462        99.7792        5406.00        5155.95          73.53
      5463        99.7959        5238.00        5121.96          72.37
      5464        99.8126        5182.00        5089.69          71.99
      5465        99.8293        5140.00        5061.71          71.69
      5466        99.8460        5125.00        5039.10          71.59
      5467        99.8627        5013.00        5021.39          70.80
      5468        99.8794        5189.00        5009.00          72.03
      5469        99.8961        5065.00        5000.63          71.17
      5470        99.9128        5177.00        4995.31          71.95
      5471        99.9296        5131.00        4991.71          71.63
      5472        99.9463        5121.00        4988.16          71.56
      5473        99.9630        5016.00        4982.92          70.82
      5474        99.9797        5007.00        4975.03          70.76
      5475        99.9964        5206.00        4964.46          72.15
      5476       100.0131        5084.00        4952.02          71.30
      5477       100.0298        5245.00        4938.71          72.42
      5478       100.0465        4898.00        4925.43          69.99
      5479       100.0632        4994.00        4912.91          70.67
      5480       100.0799        5022.00        4901.63          70.87
      5481       100.0967        4968.00        4891.93          70.48
      5482       100.1134        4992.00        4884.03          70.65
      5483       100.1301        5025.00        4878.10          70.89
      5484       100.1468        5072.00        4874.22          71.22
      5485       100.1635        4886.00        4872.48          69.90
      5486       100.1802        5013.00        4872.98          70.80
      5487       100.1969        5119.00        4875.86          71.55
      5488       100.2136        4927.00        4880.94          70.19
      5489       100.2303        4991.00        4888.80          70.65
      5490       100.2471        5082.00        4899.32          71.29
      5491       100.2638        5115.00        4912.31          71.52
      5492       100.2805        5187.00        4927.61          72.02
      5493       100.2972        5167.00        4944.92          71.88
      5494       100.3139        5067.00        4963.91          71.18
      5495       100.3306        5132.00        4984.28          71.64
      5496       100.3473        5157.00        5005.56          71.81
      5497       100.3640        5164.00        5026.91          71.86
      5498       100.3808        5094.00        5047.45          71.37
      5499       100.3975        5121.00        5063.94          71.56
      5500       100.4142        5193.00        5078.04          72.06
      5501       100.4309        5239.00        5088.57          72.38
      5502       100.4476        5233.00        5095.38          72.34
      5503       100.4643        5073.00        5097.73          71.22
      5504       100.4810        5182.00        5094.68          71.99
      5505       100.4977        5213.00        5085.76          72.20
      5506       100.5144        5122.00        5071.95          71.57
      5507       100.5312        5118.00        5055.95          71.54
      5508       100.5479        5061.00        5040.71          71.14
      5509       100.5646        5219.00        5028.70          72.24
      5510       100.5813        5264.00        5024.30          72.55
      5511       100.5980        5124.00        5022.99          71.58
      5512       100.6147        5199.00        5027.41          72.10
      5513       100.6314        5098.00        5037.71          71.40
      5514       100.6481        5052.00        5052.12          71.08
      5515       100.6648        5133.00        5071.06          71.64
      5516       100.6815        5065.00        5095.08          71.17
      5517       100.6983        5325.00        5125.04          72.97
      5518       100.7150        5357.00        5161.49          73.19
      5519       100.7317        5332.00        5203.32          73.02
      5520       100.7484        5414.00        5248.52          73.58
      5521       100.7651        5265.00        5295.14          72.56
      5522       100.7818        5484.00        5338.36          74.05
      5523       100.7985        5340.00        5371.55          73.08
      5524       100.8152        5345.00        5388.13          73.11
      5525       100.8320        5423.00        5382.75          73.64
      5526       100.8487        5284.00        5355.29          72.69
      5527       100.8654        5384.00        5310.65          73.38
      5528       100.8821        5371.00        5255.89          73.29
      5529       100.8988        5368.00        5197.72          73.27
      5530       100.9155        5145.00        5146.03          71.73
      5531       100.9322        5132.00        5099.35          71.64
      5532       100.9489        5245.00        5059.55          72.42
      5533       100.9657        5053.00        5028.84          71.08
      5534       100.9824        5232.00        5006.35          72.33
      5535       100.9991        5148.00        4991.57          71.75
      5536       101.0158        5201.00        4983.85          72.12
      5537       101.0325        5083.00        4982.62          71.30
      5538       101.0492        5132.00        4987.81          71.64
      5539       101.0659        5115.00        4998.84          71.52
      5540       101.0826        5285.00        5014.66          72.70
      5541       101.0993        5318.00        5033.68          72.92
      5542       101.1161        5367.00        5053.54          73.26
      5543       101.1328        5183.00        5070.98          71.99
      5544       101.1495        5343.00        5082.34          73.10
      5545       101.1662        5125.00        5084.79          71.59
      5546       101.1829        5229.00        5076.80          72.31
      5547       101.1996        5116.00        5059.65          71.53
      5548       101.2163        5166.00        5038.40          71.87
      5549       101.2330        5012.00        5012.14          70.80
      5550       101.2497        5093.00        4985.76          71.37
      5551       101.2664        5135.00        4963.58          71.66
      5552       101.2832        5069.00        4943.77          71.20
      5553       101.2999        5025.00        4928.35          70.89
      5554       101.3166        5214.00        4917.43          72.21
      5555       101.3333        5109.00        4910.66          71.48
      5556       101.3500        5235.00        4907.34          72.35
      5557       101.3667        5145.00        4906.47          71.73
      5558       101.3834        5064.00        4906.79          71.16
      5559       101.4001        5092.00        4907.39          71.36
      5560       101.4168        5079.00        4907.29          71.27
      5561       101.4336        5177.00        4906.10          71.95
      5562       101.4503        5227.00        4903.83          72.30
      5563       101.4670        5036.00        4900.73          70.96
      5564       101.4837        5090.00        4896.94          71.34
      5565       101.5004        5189.00        4893.02          72.03
      5566       101.5171        5139.00        4889.17          71.69
      5567       101.5338        5132.00        4885.73          71.64
      5568       101.5505        5257.00        4884.64          72.51
      5569       101.5672        5060.00        4883.09          71.13
      5570       101.5840        5298.00        4882.82          72.79
      5571       101.6007        5215.00        4884.00          72.21
      5572       101.6174        5066.00        4886.73          71.18
      5573       101.6341        5138.00        4891.10          71.68
      5574       101.6508        5139.00        4897.19          71.69
      5575       101.6675        5186.00        4905.06          72.01
      5576       101.6842        5136.00        4914.76          71.67
      5577       101.7009        5198.00        4926.31          72.10
      5578       101.7177        5163.00        4939.69          71.85
      5579       101.7344        5178.00        4954.86          71.96
      5580       101.7511        5180.00        4971.82          71.97
      5581       101.7678        5214.00        4990.64          72.21
      5582       101.7845        5281.00        5011.52          72.67
      5583       101.8012        5387.00        5034.83          73.40
      5584       101.8179        5310.00        5060.76          72.87
      5585       101.8346        5253.00        5089.79          72.48
      5586       101.8513        5323.00        5122.59          72.96
      5587       101.8680        5249.00        5159.46          72.45
      5588       101.8848        5354.00        5200.65          73.17
      5589       101.9015        5507.00        5244.90          74.21
      5590       101.9182        5423.00        5291.20          73.64
      5591       101.9349        5478.00        5338.32          74.01
      5592       101.9516        5599.00        5388.11          74.83
      5593       101.9683        5611.00        5441.57          74.91
      5594       101.9850        5488.00        5505.26          74.08
      5595       102.0017        5536.00        5585.67          74.40
      5596       102.0185        5780.00        5687.46          76.03
      5597       102.0352        5861.00        5814.07          76.56
      5598       102.0519        5986.00        5965.24          77.37
      5599       102.0686        6253.00        6139.30          79.08
      5600       102.0853        6439.00        6327.83          80.24
      5601       102.1020        6762.00        6521.79          82.23
      5602       102.1187        6902.00        6706.18          83.08
      5603       102.1354        7199.00        6857.85          84.85
      5604       102.1521        7173.00        6954.67          84.69
      5605       102.1689        7164.00        6981.03          84.64
      5606       102.1856        7008.00        6933.79          83.71
      5607       102.2023        6764.00        6826.20          82.24
      5608       102.2190        6632.00        6679.39          81.44
      5609       102.2357        6387.00        6515.51          79.92
      5610       102.2524        6172.00        6355.78          78.56
      5611       102.2691        6127.00        6214.32          78.28
      5612       102.2858        6013.00        6103.11          77.54
      5613       102.3026        6056.00        6030.83          77.82
      5614       102.3193        6035.00        6001.84          77.69
      5615       102.3360        6078.00        6020.38          77.96
      5616       102.3527        6228.00        6088.24          78.92
      5617       102.3694        6288.00        6203.65          79.30
      5618       102.3861        6473.00        6364.65          80.46
      5619       102.4028        6703.00        6563.91          81.87
      5620       102.4195        6937.00        6792.37          83.29
      5621       102.4362        7360.00        7034.78          85.79
      5622       102.4529        7679.00        7271.56          87.63
      5623       102.4697        7835.00        7475.55          88.52
      5624       102.4864        8127.00        7614.10          90.15
      5625       102.5031        8147.00        7659.76          90.26
      5626       102.5198        7896.00        7601.44          88.86
      5627       102.5365        7607.00        7449.38          87.22
      5628       102.5532        7216.00        7230.92          84.95
      5629       102.5699        6821.00        6978.61          82.59
      5630       102.5866        6659.00        6722.40          81.60
      5631       102.6033        6416.00        6486.57          80.10
      5632       102.6201        6221.00        6288.27          78.87
      5633       102.6368        6239.00        6139.90          78.99
      5634       102.6535        6008.00        6048.68          77.51
      5635       102.6702        5945.00        6016.89          77.10
      5636       102.6869        6134.00        6044.97          78.32
      5637       102.7036        6305.00        6123.86          79.40
      5638       102.7203        6387.00        6246.55          79.92
      5639       102.7370        6478.00        6401.54          80.49
      5640       102.7537        6651.00        6572.20          81.55
      5641       102.7705        6843.00        6738.47          82.72
      5642       102.7872        7119.00        6876.96          84.37
      5643       102.8039        7244.00        6965.67          85.11
      5644       102.8206        7324.00        6989.29          85.58
      5645       102.8373        7416.00        6943.39          86.12
      5646       102.8540        7162.00        6833.47          84.63
      5647       102.8707        6839.00        6672.94          82.70
      5648       102.8874        6570.00        6480.24          81.06
      5649       102.9042        6201.00        6275.31          78.75
      5650       102.9209        6038.00        6076.42          77.70
      5651       102.9376        5960.00        5896.90          77.20
      5652       102.9543        5733.00        5745.80          75.72
      5653       102.9710        5545.00        5628.45          74.46
      5654       102.9877        5610.00        5547.09          74.90
      5655       103.0044        5629.00        5501.62          75.03
      5656       103.0211        5708.00        5490.30          75.55
      5657       103.0378        5673.00        5510.82          75.32
      5658       103.0546        5660.00        5556.67          75.23
      5659       103.0713        5874.00        5622.83          76.64
      5660       103.0880        5989.00        5701.43          77.39
      5661       103.1047        5953.00        5782.54          77.16
      5662       103.1214        6047.00        5854.05          77.76
      5663       103.1381        6056.00        5902.70          77.82
      5664       103.1548        6137.00        5917.19          78.34
      5665       103.1715        6116.00        5892.65          78.20
      5666       103.1882        6246.00        5832.83          79.03
      5667       103.2050        5808.00        5747.91          76.21
      5668       103.2217        5722.00        5650.09          75.64
      5669       103.2384        5616.00        5550.11          74.94
      5670       103.2551        5571.00        5456.07          74.64
      5671       103.2718        5653.00        5373.39          75.19
      5672       103.2885        5543.00        5305.37          74.45
      5673       103.3052        5589.00        5253.65          74.76
      5674       103.3219        5503.00        5219.02          74.18
      5675       103.3386        5365.00        5200.53          73.25
      5676       103.3554        5525.00        5197.72          74.33
      5677       103.3721        5437.00        5209.67          73.74
      5678       103.3888        5355.00        5235.43          73.18
      5679       103.4055        5578.00        5274.39          74.69
      5680       103.4222        5555.00        5325.99          74.53
      5681       103.4389        5551.00        5389.82          74.50
      5682       103.4556        5611.00        5465.25          74.91
      5683       103.4723        5929.00        5551.12          77.00
      5684       103.4891        6038.00        5645.04          77.70
      5685       103.5058        6149.00        5743.83          78.42
      5686       103.5225        6135.00        5843.43          78.33
      5687       103.5392        6166.00        5940.62          78.52
      5688       103.5559        6270.00        6030.90          79.18
      5689       103.5726        6478.00        6111.33          80.49
      5690       103.5893        6442.00        6181.79          80.26
      5691       103.6060        6483.00        6245.54          80.52
      5692       103.6227        6695.00        6307.27          81.82
      5693       103.6395        6603.00        6370.03          81.26
      5694       103.6562        6967.00        6433.48          83.47
      5695       103.6729        6887.00        6493.47          82.99
      5696       103.6896        6941.00        6543.38          83.31
      5697       103.7063        6868.00        6577.12          82.87
      5698       103.7230        6704.00        6592.21          81.88
      5699       103.7397        6735.00        6586.70          82.07
      5700       103.7564        6616.00        6569.09          81.34
      5701       103.7731        6561.00        6540.33          81.00
      5702       103.7898        6459.00        6503.17          80.37
      5703       103.8066        6160.00        6461.72          78.49
      5704       103.8233        6257.00        6418.34          79.10
      5705       103.8400        6338.00        6375.53          79.61
      5706       103.8567        6264.00        6333.96          79.15
      5707       103.8734        6313.00        6291.84          79.45
      5708       103.8901        6160.00        6245.92          78.49
      5709       103.9068        6321.00        6194.80          79.50
      5710       103.9235        6226.00        6138.86          78.90
      5711       103.9402        6143.00        6081.18          78.38
      5712       103.9570        5933.00        6025.61          77.03
      5713       103.9737        6209.00        5976.93          78.80
      5714       103.9904        6313.00        5938.40          79.45
      5715       104.0071        6047.00        5911.67          77.76
      5716       104.0238        6155.00        5895.63          78.45
      5717       104.0405        6239.00        5886.97          78.99
      5718       104.0572        6153.00        5881.69          78.44
      5719       104.0739        6205.00        5876.81          78.77
      5720       104.0907        6221.00        5868.45          78.87
      5721       104.1074        6155.00        5861.75          78.45
      5722       104.1241        6099.00        5858.74          78.10
      5723       104.1408        5921.00        5860.76          76.95
      5724       104.1575        5874.00        5870.22          76.64
      5725       104.1742        6007.00        5890.22          77.50
      5726       104.1909        6109.00        5922.56          78.16
      5727       104.2076        6082.00        5968.29          77.99
      5728       104.2243        6047.00        6026.25          77.76
      5729       104.2411        6074.00        6092.57          77.94
      5730       104.2578        6390.00        6161.22          79.94
      5731       104.2745        6303.00        6224.18          79.39
      5732       104.2912        6452.00        6271.71          80.32
      5733       104.3079        6576.00        6292.38          81.09
      5734       104.3246        6435.00        6275.48          80.22
      5735       104.3413        6484.00        6216.23          80.52
      5736       104.3580        6522.00        6118.38          80.76
      5737       104.3747        6050.00        5993.31          77.78
      5738       104.3915        6072.00        5854.75          77.92
      5739       104.4082        5765.00        5712.95          75.93
      5740       104.4249        5713.00        5581.27          75.58
      5741       104.4416        5502.00        5464.00          74.18
      5742       104.4583        5579.00        5363.39          74.69
      5743       104.4750        5406.00        5284.08          73.53
      5744       104.4917        5344.00        5225.11          73.10
      5745       104.5084        5187.00        5186.10          72.02
      5746       104.5251        5334.00        5165.88          73.03
      5747       104.5419        5339.00        5163.04          73.07
      5748       104.5586        5334.00        5175.87          73.03
      5749       104.5753        5322.00        5202.49          72.95
      5750       104.5920        5475.00        5240.42          73.99
      5751       104.6087        5413.00        5286.77          73.57
      5752       104.6254        5517.00        5337.80          74.28
      5753       104.6421        5463.00        5388.49          73.91
      5754       104.6588        5599.00        5432.67          74.83
      5755       104.6756        5519.00        5463.23          74.29
      5756       104.6923        5632.00        5474.09          75.05
      5757       104.7090        5763.00        5462.44          75.91
      5758       104.7257        5484.00        5430.15          74.05
      5759       104.7424        5546.00        5382.84          74.47
      5760       104.7591        5417.00        5326.79          73.60
      5761       104.7758        5271.00        5268.52          72.60
      5762       104.7925        5566.00        5214.41          74.61
      5763       104.8092        5295.00        5166.84          72.77
      5764       104.8260        5184.00        5128.07          72.00
      5765       104.8427        5073.00        5099.16          71.22
      5766       104.8594        5298.00        5080.32          72.79
      5767       104.8761        5003.00        5070.97          70.73
      5768       104.8928        5230.00        5069.91          72.32
      5769       104.9095        5182.00        5075.48          71.99
      5770       104.9262        5294.00        5086.31          72.76
      5771       104.9429        5248.00        5098.32          72.44
      5772       104.9596        5199.00        5109.33          72.10
      5773       104.9763        5191.00        5116.39          72.05
      5774       104.9931        5166.00        5117.08          71.87
      5775       105.0098        5139.00        5110.32          71.69
      5776       105.0265        5108.00        5096.66          71.47
      5777       105.0432        5169.00        5077.85          71.90
      5778       105.0599        5193.00        5056.26          72.06
      5779       105.0766        5069.00        5033.82          71.20
      5780       105.0933        5077.00        5012.11          71.25
      5781       105.1100        5116.00        4992.27          71.53
      5782       105.1267        5104.00        4975.04          71.44
      5783       105.1435        5032.00        4960.61          70.94
      5784       105.1602        4992.00        4949.72          70.65
      5785       105.1769        5026.00        4942.16          70.89
      5786       105.1936        5094.00        4937.72          71.37
      5787       105.2103        5024.00        4935.58          70.88
      5788       105.2270        5080.00        4937.15          71.27
      5789       105.2437        5098.00        4941.09          71.40
      5790       105.2604        4931.00        4947.29          70.22
      5791       105.2771        5028.00        4955.11          70.91
      5792       105.2939        4976.00        4964.30          70.54
      5793       105.3106        5092.00        4973.22          71.36
      5794       105.3273        4924.00        4980.06          70.17
      5795       105.3440        5106.00        4986.10          71.46
      5796       105.3607        5033.00        4988.94          70.94
      5797       105.3774        5181.00        4987.29          71.98
      5798       105.3941        5096.00        4982.97          71.39
      5799       105.4108        5121.00        4976.18          71.56
      5800       105.4276        5035.00        4968.17          70.96
      5801       105.4443        4940.00        4959.35          70.29
      5802       105.4610        5009.00        4952.10          70.77
      5803       105.4777        5097.00        4946.38          71.39
      5804       105.4944        5063.00        4942.60          71.15
      5805       105.5111        5063.00        4940.96          71.15
      5806       105.5278        5021.00        4940.58          70.86
      5807       105.5445        5086.00        4942.85          71.32
      5808       105.5612        5047.00        4946.37          71.04
      5809       105.5780        5150.00        4950.11          71.76
      5810       105.5947        4970.00        4953.95          70.50
      5811       105.6114        4969.00        4956.47          70.49
      5812       105.6281        4881.00        4956.75          69.86
      5813       105.6448        5017.00        4954.53          70.83
      5814       105.6615        4924.00        4949.94          70.17
      5815       105.6782        5027.00        4943.63          70.90
      5816       105.6949        5081.00        4935.83          71.28
      5817       105.7116        5045.00        4928.45          71.03
      5818       105.7284        5066.00        4921.39          71.18
      5819       105.7451        4940.00        4914.56          70.29
      5820       105.7618        4972.00        4908.98          70.51
      5821       105.7785        4986.00        4904.41          70.61
      5822       105.7952        5021.00        4900.92          70.86
      5823       105.8119        5063.00        4898.21          71.15
      5824       105.8286        4920.00        4897.00          70.14
      5825       105.8453        4963.00        4896.90          70.45
      5826       105.8620        4970.00        4897.87          70.50
      5827       105.8788        4928.00        4899.81          70.20
      5828       105.8955        5037.00        4902.19          70.97
      5829       105.9122        5018.00        4905.71          70.84
      5830       105.9289        5006.00        4909.74          70.75
      5831       105.9456        5000.00        4914.00          70.71
      5832       105.9623        5109.00        4918.16          71.48
      5833       105.9790        4954.00        4919.90          70.38
      5834       105.9957        5025.00        4922.72          70.89
      5835       106.0125        5020.00        4924.44          70.85
      5836       106.0292        5091.00        4926.45          71.35
      5837       106.0459        5073.00        4926.45          71.22
      5838       106.0626        5028.00        4926.21          70.91
      5839       106.0793        4946.00        4926.20          70.33
      5840       106.0960        5063.00        4926.83          71.15
      5841       106.1127        5096.00        4928.36          71.39
      5842       106.1294        4964.00        4930.99          70.46
      5843       106.1461        5102.00        4934.81          71.43
      5844       106.1628        4888.00        4939.78          69.91
      5845       106.1796        4986.00        4945.81          70.61
      5846       106.1963        5031.00        4952.64          70.93
      5847       106.2130        5118.00        4959.98          71.54
      5848       106.2297        5000.00        4967.56          70.71
      5849       106.2464        5157.00        4974.30          71.81
      5850       106.2631        5140.00        4980.41          71.69
      5851       106.2798        5081.00        4984.05          71.28
      5852       106.2965        5057.00        4985.54          71.11
      5853       106.3132        5161.00        4985.06          71.84
      5854       106.3300        5206.00        4983.05          72.15
      5855       106.3467        5063.00        4980.29          71.15
      5856       106.3634        5083.00        4976.65          71.30
      5857       106.3801        5010.00        4974.85          70.78
      5858       106.3968        4888.00        4974.72          69.91
      5859       106.4135        5122.00        4977.74          71.57
      5860       106.4302        5036.00        4983.45          70.96
      5861       106.4469        5071.00        4993.39          71.21
      5862       106.4636        5047.00        5008.43          71.04
      5863       106.4804        5006.00        5029.40          70.75
      5864       106.4971        5065.00        5056.95          71.17
      5865       106.5138        5283.00        5091.35          72.68
      5866       106.5305        5170.00        5132.50          71.90
      5867       106.5472        5253.00        5179.64          72.48
      5868       106.5639        5384.00        5231.17          73.38
      5869       106.5806        5366.00        5284.64          73.25
      5870       106.5973        5413.00        5336.37          73.57
      5871       106.6141        5541.00        5382.44          74.44
      5872       106.6308        5585.00        5415.89          74.73
      5873       106.6475        5642.00        5431.97          75.11
      5874       106.6642        5385.00        5428.02          73.38
      5875       106.6809        5470.00        5405.65          73.96
      5876       106.6976        5141.00        5368.60          71.70
      5877       106.7143        5341.00        5323.11          73.08
      5878       106.7310        5253.00        5272.86          72.48
      5879       106.7477        5261.00        5224.02          72.53
      5880       106.7645        5119.00        5177.70          71.55
      5881       106.7812        5116.00        5137.13          71.53
      5882       106.7979        5155.00        5103.73          71.80
      5883       106.8146        5223.00        5078.31          72.27
      5884       106.8313        5071.00        5061.94          71.21
      5885       106.8480        5172.00        5053.24          71.92
      5886       106.8647        5129.00        5052.78          71.62
      5887       106.8814        5070.00        5060.29          71.20
      5888       106.8981        5116.00        5075.40          71.53
      5889       106.9149        5173.00        5097.54          71.92
      5890       106.9316        5245.00        5125.97          72.42
      5891       106.9483        5196.00        5159.53          72.08
      5892       106.9650        5244.00        5196.54          72.42
      5893       106.9817        5333.00        5234.71          73.03
      5894       106.9984        5469.00        5271.33          73.95
      5895       107.0151        5318.00        5302.14          72.92
      5896       107.0318        5190.00        5323.84          72.04
      5897       107.0485        5411.00        5333.63          73.56
      5898       107.0653        5347.00        5330.70          73.12
      5899       107.0820        5415.00        5315.47          73.59
      5900       107.0987        5250.00        5290.31          72.46
      5901       107.1154        5009.00        5257.81          70.77
      5902       107.1321        5206.00        5220.63          72.15
      5903       107.1488        5066.00        5182.33          71.18
      5904       107.1655        5110.00        5145.47          71.48
      5905       107.1822        5291.00        5111.85          72.74
      5906       107.1990        5146.00        5082.59          71.74
      5907       107.2157        5022.00        5058.65          70.87
      5908       107.2324        5049.00        5039.46          71.06
      5909       107.2491        5053.00        5025.25          71.08
      5910       107.2658        5101.00        5015.71          71.42
      5911       107.2825        5151.00        5010.42          71.77
      5912       107.2992        5102.00        5008.96          71.43
      5913       107.3159        5116.00        5010.91          71.53
      5914       107.3326        5003.00        5015.74          70.73
      5915       107.3493        5114.00        5023.28          71.51
      5916       107.3661        5115.00        5032.99          71.52
      5917       107.3828        5156.00        5044.36          71.81
      5918       107.3995        5075.00        5056.80          71.24
      5919       107.4162        5161.00        5069.56          71.84
      5920       107.4329        5207.00        5081.77          72.16
      5921       107.4496        5223.00        5092.54          72.27
      5922       107.4663        5187.00        5101.16          72.02
      5923       107.4830        5163.00        5107.43          71.85
      5924       107.4997        5184.00        5111.70          72.00
      5925       107.5165        5243.00        5115.02          72.41
      5926       107.5332        5233.00        5118.76          72.34
      5927       107.5499        5215.00        5124.53          72.21
      5928       107.5666        5098.00        5134.08          71.40
      5929       107.5833        5180.00        5149.09          71.97
      5930       107.6000        5114.00        5171.28          71.51
      5931       107.6167        5117.00        5202.17          71.53
      5932       107.6334        5433.00        5242.94          73.71
      5933       107.6501        5292.00        5295.01          72.75
      5934       107.6669        5475.00        5357.08          73.99
      5935       107.6836        5567.00        5428.92          74.61
      5936       107.7003        5715.00        5508.41          75.60
      5937       107.7170        5519.00        5592.16          74.29
      5938       107.7337        5604.00        5675.45          74.86
      5939       107.7504        5778.00        5751.53          76.01
      5940       107.7671        5800.00        5812.86          76.16
      5941       107.7838        5682.00        5852.31          75.38
      5942       107.8006        5817.00        5865.82          76.27
      5943       107.8173        5783.00        5854.52          76.05
      5944       107.8340        5679.00        5824.09          75.36
      5945       107.8507        5618.00        5783.18          74.95
      5946       107.8674        5559.00        5740.36          74.56
      5947       107.8841        5608.00        5702.60          74.89
      5948       107.9008        5624.00        5674.70          74.99
      5949       107.9175        5512.00        5659.33          74.24
      5950       107.9342        5649.00        5657.11          75.16
      5951       107.9510        5521.00        5666.74          74.30
      5952       107.9677        5537.00        5685.09          74.41
      5953       107.9844        5623.00        5707.46          74.99
      5954       108.0011        5739.00        5728.49          75.76
      5955       108.0178        5838.00        5743.66          76.41
      5956       108.0345        5768.00        5750.59          75.95
      5957       108.0512        5684.00        5748.82          75.39
      5958       108.0679        5486.00        5741.12          74.07
      5959       108.0846        5730.00        5730.79          75.70
      5960       108.1014        5615.00        5722.77          74.93
      5961       108.1181        5785.00        5714.61          76.06
      5962       108.1348        5605.00        5708.51          74.87
      5963       108.1515        5511.00        5703.28          74.24
      5964       108.1682        5780.00        5697.07          76.03
      5965       108.1849        5487.00        5688.56          74.07
      5966       108.2016        5602.00        5678.28          74.85
      5967       108.2183        5671.00        5668.89          75.31
      5968       108.2350        5669.00        5664.79          75.29
      5969       108.2518        5619.00        5670.66          74.96
      5970       108.2685        5604.00        5690.54          74.86
      5971       108.2852        5658.00        5727.34          75.22
      5972       108.3019        5745.00        5782.88          75.80
      5973       108.3186        5763.00        5856.77          75.91
      5974       108.3353        5921.00        5947.67          76.95
      5975       108.3520        6070.00        6051.91          77.91
      5976       108.3687        6102.00        6163.99          78.12
      5977       108.3855        6085.00        6276.56          78.01
      5978       108.4022        6148.00        6384.86          78.41
      5979       108.4189        6298.00        6483.70          79.36
      5980       108.4356        6367.00        6570.91          79.79
      5981       108.4523        6386.00        6645.33          79.91
      5982       108.4690        6369.00        6706.63          79.81
      5983       108.4857        6298.00        6747.87          79.36
      5984       108.5024        6262.00        6763.55          79.13
      5985       108.5191        6287.00        6750.51          79.29
      5986       108.5359        6171.00        6708.30          78.56
      5987       108.5526        6165.00        6640.73          78.52
      5988       108.5693        6113.00        6554.20          78.19
      5989       108.5860        5963.00        6455.15          77.22
      5990       108.6027        5995.00        6348.56          77.43
      5991       108.6194        6037.00        6238.33          77.70
      5992       108.6361        5827.00        6128.08          76.33
      5993       108.6528        6005.00        6022.38          77.49
      5994       108.6695        5799.00        5926.25          76.15
      5995       108.6862        5639.00        5844.08          75.09
      5996       108.7030        5588.00        5778.69          74.75
      5997       108.7197        5769.00        5731.47          75.95
      5998       108.7364        5634.00        5702.13          75.06
      5999       108.7531        5582.00        5689.12          74.71
      6000       108.7698        5573.00        5689.73          74.65
      6001       108.7865        5748.00        5700.49          75.82
      6002       108.8032        5618.00        5719.25          74.95
      6003       108.8199        5629.00        5743.16          75.03
      6004       108.8366        5528.00        5770.29          74.35
      6005       108.8534        5621.00        5799.24          74.97
      6006       108.8701        5595.00        5824.76          74.80
      6007       108.8868        5666.00        5844.43          75.27
      6008       108.9035        5842.00        5854.50          76.43
      6009       108.9202        5747.00        5848.69          75.81
      6010       108.9369        5664.00        5828.68          75.26
      6011       108.9536        5819.00        5796.12          76.28
      6012       108.9703        5610.00        5753.69          74.90
      6013       108.9870        5633.00        5704.02          75.05
      6014       109.0038        5362.00        5649.00          73.23
      6015       109.0205        5604.00        5590.25          74.86
      6016       109.0372        5495.00        5529.54          74.13
      6017       109.0539        5407.00        5469.01          73.53
      6018       109.0706        5439.00        5411.00          73.75
      6019       109.0873        5413.00        5357.41          73.57
      6020       109.1040        5236.00        5309.62          72.36
      6021       109.1207        5431.00        5268.27          73.70
      6022       109.1375        5308.00        5233.53          72.86
      6023       109.1542        5324.00        5205.36          72.97
      6024       109.1709        5175.00        5183.41          71.94
      6025       109.1876        5181.00        5167.35          71.98
      6026       109.2043        5184.00        5156.89          72.00
      6027       109.2210        5241.00        5151.74          72.39
      6028       109.2377        5376.00        5151.87          73.32
      6029       109.2544        5174.00        5159.54          71.93
      6030       109.2711        5216.00        5171.02          72.22
      6031       109.2879        5266.00        5187.88          72.57
      6032       109.3046        5333.00        5211.01          73.03
      6033       109.3213        5274.00        5238.55          72.62
      6034       109.3380        5346.00        5271.27          73.12
      6035       109.3547        5241.00        5308.82          72.39
      6036       109.3714        5368.00        5349.32          73.27
      6037       109.3881        5428.00        5391.44          73.68
      6038       109.4048        5349.00        5432.84          73.14
      6039       109.4215        5460.00        5472.81          73.89
      6040       109.4383        5471.00        5503.82          73.97
      6041       109.4550        5435.00        5524.67          73.72
      6042       109.4717        5555.00        5533.02          74.53
      6043       109.4884        5509.00        5528.55          74.22
      6044       109.5051        5425.00        5514.77          73.65
      6045       109.5218        5498.00        5491.74          74.15
      6046       109.5385        5504.00        5464.88          74.19
      6047       109.5552        5326.00        5437.73          72.98
      6048       109.5719        5349.00        5410.95          73.14
      6049       109.5887        5361.00        5389.21          73.22
      6050       109.6054        5431.00        5374.47          73.70
      6051       109.6221        5367.00        5362.79          73.26
      6052       109.6388        5331.00        5356.75          73.01
      6053       109.6555        5360.00        5357.95          73.21
      6054       109.6722        5529.00        5367.18          74.36
      6055       109.6889        5357.00        5383.09          73.19
      6056       109.7056        5435.00        5409.46          73.72
      6057       109.7224        5449.00        5448.20          73.82
      6058       109.7391        5543.00        5501.04          74.45
      6059       109.7558        5424.00        5569.58          73.65
      6060       109.7725        5624.00        5654.08          74.99
      6061       109.7892        5659.00        5754.32          75.23
      6062       109.8059        5782.00        5868.56          76.04
      6063       109.8226        5988.00        5995.83          77.38
      6064       109.8393        5875.00        6128.80          76.65
      6065       109.8560        6168.00        6261.79          78.54
      6066       109.8727        6221.00        6386.60          78.87
      6067       109.8895        6336.00        6493.64          79.60
      6068       109.9062        6624.00        6573.70          81.39
      6069       109.9229        6561.00        6616.24          81.00
      6070       109.9396        6364.00        6616.75          79.77
      6071       109.9563        6352.00        6576.37          79.70
      6072       109.9730        6144.00        6501.36          78.38
      6073       109.9897        6095.00        6404.55          78.07
      6074       110.0064        5945.00        6298.25          77.10
      6075       110.0231        5982.00        6191.35          77.34
      6076       110.0399        5845.00        6091.85          76.45
      6077       110.0566        5793.00        6006.74          76.11
      6078       110.0733        5719.00        5940.82          75.62
      6079       110.0900        5740.00        5895.61          75.76
      6080       110.1067        5703.00        5873.74          75.52
      6081       110.1234        5897.00        5875.96          76.79
      6082       110.1401        5900.00        5902.37          76.81
      6083       110.1568        5843.00        5952.60          76.44
      6084       110.1735        6002.00        6026.02          77.47
      6085       110.1903        5962.00        6120.83          77.21
      6086       110.2070        6231.00        6236.33          78.94
      6087       110.2237        6215.00        6368.65          78.84
      6088       110.2404        6349.00        6511.78          79.68
      6089       110.2571        6467.00        6657.18          80.42
      6090       110.2738        6887.00        6793.40          82.99
      6091       110.2905        6845.00        6906.75          82.73
      6092       110.3072        6648.00        6982.09          81.54
      6093       110.3240        6895.00        7008.60          83.04
      6094       110.3407        6652.00        6982.71          81.56
      6095       110.3574        6539.00        6907.06          80.86
      6096       110.3741        6593.00        6792.19          81.20
      6097       110.3908        6287.00        6652.42          79.29
      6098       110.4075        6171.00        6501.82          78.56
      6099       110.4242        6167.00        6352.10          78.53
      6100       110.4409        5970.00        6213.43          77.27
      6101       110.4576        6006.00        6092.79          77.50
      6102       110.4744        5967.00        5994.64          77.25
      6103       110.4911        5932.00        5922.25          77.02
      6104       110.5078        6020.00        5877.60          77.59
      6105       110.5245        6103.00        5861.73          78.12
      6106       110.5412        5958.00        5875.20          77.19
      6107       110.5579        6202.00        5918.35          78.75
      6108       110.5746        6041.00        5991.62          77.72
      6109       110.5913        6180.00        6095.15          78.61
      6110       110.6080        6229.00        6228.30          78.92
      6111       110.6248        6447.00        6390.50          80.29
      6112       110.6415        6617.00        6578.42          81.34
      6113       110.6582        6723.00        6786.63          81.99
      6114       110.6749        7307.00        7006.68          85.48
      6115       110.6916        7410.00        7226.97          86.08
      6116       110.7083        7711.00        7432.42          87.81
      6117       110.7250        7771.00        7606.20          88.15
      6118       110.7417        7882.00        7730.42          88.78
      6119       110.7584        8069.00        7791.93          89.83
      6120       110.7752        7986.00        7782.39          89.36
      6121       110.7919        7548.00        7703.08          86.88
      6122       110.8086        7608.00        7564.61          87.22
      6123       110.8253        7164.00        7384.11          84.64
      6124       110.8420        7013.00        7180.79          83.74
      6125       110.8587        6739.00        6974.07          82.09
      6126       110.8754        6668.00        6778.74          81.66
      6127       110.8921        6464.00        6607.09          80.40
      6128       110.9089        6247.00        6468.11          79.04
      6129       110.9256        6388.00        6368.62          79.93
      6130       110.9423        6152.00        6313.23          78.43
      6131       110.9590        6430.00        6304.97          80.19
      6132       110.9757        6343.00        6345.91          79.64
      6133       110.9924        6755.00        6435.23          82.19
      6134       111.0091        6714.00        6572.14          81.94
      6135       111.0258        6905.00        6753.98          83.10
      6136       111.0425        7213.00        6976.50          84.93
      6137       111.0592        7642.00        7232.10          87.42
      6138       111.0760        7996.00        7511.72          89.42
      6139       111.0927        8144.00        7802.58          90.24
      6140       111.1094        8772.00        8088.92          93.66
      6141       111.1261        8892.00        8351.75          94.30
      6142       111.1428        9059.00        8574.08          95.18
      6143       111.1595        8980.00        8743.70          94.76
      6144       111.1762        9044.00        8856.69          95.10
      6145       111.1929        8943.00        8918.07          94.57
      6146       111.2096        8774.00        8939.44          93.67
      6147       111.2264        8791.00        8935.21          93.76
      6148       111.2431        8788.00        8919.33          93.74
      6149       111.2598        8713.00        8902.62          93.34
      6150       111.2765        8958.00        8891.50          94.65
      6151       111.2932        8765.00        8888.10          93.62
      6152       111.3099        8848.00        8891.33          94.06
      6153       111.3266        8930.00        8902.05          94.50
      6154       111.3433        8623.00        8920.60          92.86
      6155       111.3600        8652.00        8949.04          93.02
      6156       111.3768        9053.00        8989.18          95.15
      6157       111.3935        8949.00        9039.41          94.60
      6158       111.4102        8826.00        9098.03          93.95
      6159       111.4269        9023.00        9163.16          94.99
      6160       111.4436        9278.00        9232.25          96.32
      6161       111.4603        9317.00        9300.56          96.52
      6162       111.4770        9444.00        9360.17          97.18
      6163       111.4938        9784.00        9400.92          98.91
      6164       111.5105        9796.00        9412.51          98.97
      6165       111.5272        9636.00        9386.40          98.16
      6166       111.5439        9596.00        9317.00          97.96
      6167       111.5606        9237.00        9202.19          96.11
      6168       111.5773        8861.00        9043.97          94.13
      6169       111.5940        8711.00        8850.22          93.33
      6170       111.6107        8367.00        8634.23          91.47
      6171       111.6274        8034.00        8410.69          89.63
      6172       111.6441        7734.00        8195.05          87.94
      6173       111.6609        7626.00        7998.44          87.33
      6174       111.6776        7461.00        7828.10          86.38
      6175       111.6943        7393.00        7686.84          85.98
      6176       111.7110        7342.00        7574.43          85.69
      6177       111.7277        7268.00        7488.24          85.25
      6178       111.7444        7132.00        7426.09          84.45
      6179       111.7611        7239.00        7385.28          85.08
      6180       111.7778        7160.00        7364.17          84.62
      6181       111.7945        7056.00        7357.61          84.00
      6182       111.8113        7217.00        7366.74          84.95
      6183       111.8280        7291.00        7385.65          85.39
      6184       111.8447        7243.00        7410.42          85.11
      6185       111.8614        7364.00        7436.88          85.81
      6186       111.8781        7598.00        7459.79          87.17
      6187       111.8948        7379.00        7472.36          85.90
      6188       111.9115        7544.00        7466.74          86.86
      6189       111.9282        7368.00        7435.97          85.84
      6190       111.9449        7261.00        7375.33          85.21
      6191       111.9617        7031.00        7283.73          83.85
      6192       111.9784        6931.00        7163.29          83.25
      6193       111.9951        6783.00        7018.38          82.36
      6194       112.0118        6698.00        6855.16          81.84
      6195       112.0285        6478.00        6681.68          80.49
      6196       112.0452        6225.00        6505.48          78.90
      6197       112.0619        6116.00        6334.19          78.20
      6198       112.0786        5944.00        6173.73          77.10
      6199       112.0954        5822.00        6028.27          76.30
      6200       112.1121        5776.00        5900.42          76.00
      6201       112.1288        5653.00        5791.38          75.19
      6202       112.1455        5604.00        5701.16          74.86
      6203       112.1622        5606.00        5628.96          74.87
      6204       112.1789        5487.00        5572.83          74.07
      6205       112.1956        5604.00        5532.78          74.86
      6206       112.2123        5464.00        5505.04          73.92
      6207       112.2290        5487.00        5489.75          74.07
      6208       112.2458        5558.00        5483.89          74.55
      6209       112.2625        5389.00        5485.42          73.41
      6210       112.2792        5400.00        5492.26          73.48
      6211       112.2959        5576.00        5502.21          74.67
      6212       112.3126        5514.00        5512.91          74.26
      6213       112.3293        5579.00        5521.92          74.69
      6214       112.3460        5545.00        5526.86          74.46
      6215       112.3627        5514.00        5525.89          74.26
      6216       112.3794        5521.00        5518.01          74.30
      6217       112.3961        5496.00        5503.32          74.14
      6218       112.4129        5479.00        5483.83          74.02
      6219       112.4296        5491.00        5459.12          74.10
      6220       112.4463        5364.00        5432.16          73.24
      6221       112.4630        5327.00        5404.52          72.99
      6222       112.4797        5271.00        5377.91          72.60
      6223       112.4964        5276.00        5352.58          72.64
      6224       112.5131        5351.00        5329.70          73.15
      6225       112.5298        5394.00        5309.64          73.44
      6226       112.5465        5287.00        5292.59          72.71
      6227       112.5633        5272.00        5278.56          72.61
      6228       112.5800        5282.00        5267.48          72.68
      6229       112.5967        5158.00        5259.90          71.82
      6230       112.6134        5263.00        5253.75          72.55
      6231       112.6301        5384.00        5250.44          73.38
      6232       112.6468        5340.00        5248.52          73.08
      6233       112.6635        5380.00        5247.63          73.35
      6234       112.6803        5265.00        5251.57          72.56
      6235       112.6970        5201.00        5258.24          72.12
      6236       112.7137        5364.00        5268.01          73.24
      6237       112.7304        5385.00        5281.32          73.38
      6238       112.7471        5238.00        5298.59          72.37
      6239       112.7638        5428.00        5321.01          73.68
      6240       112.7805        5291.00        5347.42          72.74
      6241       112.7972        5290.00        5378.63          72.73
      6242       112.8139        5433.00        5414.60          73.71
      6243       112.8307        5314.00        5454.76          72.90
      6244       112.8474        5461.00        5498.66          73.90
      6245       112.8641        5526.00        5543.86          74.34
      6246       112.8808        5496.00        5588.76          74.14
      6247       112.8975        5533.00        5630.80          74.38
      6248       112.9142        5529.00        5667.06          74.36
      6249       112.9309        5542.00        5694.53          74.44
      6250       112.9476        5560.00        5711.71          74.57
      6251       112.9643        5560.00        5716.89          74.57
      6252       112.9810        5509.00        5710.49          74.22
      6253       112.9978        5639.00        5693.46          75.09
      6254       113.0145        5586.00        5667.82          74.74
      6255       113.0312        5606.00        5635.25          74.87
      6256       113.0479        5455.00        5596.13          73.86
      6257       113.0646        5466.00        5558.71          73.93
      6258       113.0813        5558.00        5524.84          74.55
      6259       113.0980        5466.00        5493.43          73.93
      6260       113.1147        5482.00        5469.57          74.04
      6261       113.1314        5475.00        5453.56          73.99
      6262       113.1482        5452.00        5447.00          73.84
      6263       113.1649        5570.00        5449.33          74.63
      6264       113.1816        5453.00        5461.35          73.84
      6265       113.1983        5560.00        5483.27          74.57
      6266       113.2150        5576.00        5511.66          74.67
      6267       113.2317        5570.00        5550.15          74.63
      6268       113.2484        5562.00        5595.01          74.58
      6269       113.2651        5627.00        5644.21          75.01
      6270       113.2818        5718.00        5694.98          75.62
      6271       113.2986        5644.00        5744.06          75.13
      6272       113.3153        5658.00        5785.91          75.22
      6273       113.3320        5851.00        5820.30          76.49
      6274       113.3487        5784.00        5842.71          76.05
      6275       113.3654        5766.00        5851.99          75.93
      6276       113.3821        5845.00        5848.80          76.45
      6277       113.3988        5736.00        5835.38          75.74
      6278       113.4155        5701.00        5812.39          75.50
      6279       113.4323        5620.00        5787.46          74.97
      6280       113.4490        5585.00        5761.08          74.73
      6281       113.4657        5614.00        5735.65          74.93
      6282       113.4824        5636.00        5711.70          75.07
      6283       113.4991        5671.00        5691.68          75.31
      6284       113.5158        5649.00        5678.50          75.16
      6285       113.5325        5537.00        5669.09          74.41
      6286       113.5492        5624.00        5662.69          74.99
      6287       113.5659        5607.00        5657.96          74.88
      6288       113.5826        5391.00        5651.85          73.42
      6289       113.5994        5552.00        5643.67          74.51
      6290       113.6161        5532.00        5632.65          74.38
      6291       113.6328        5631.00        5619.23          75.04
      6292       113.6495        5582.00        5603.46          74.71
      6293       113.6662        5466.00        5588.73          73.93
      6294       113.6829        5495.00        5574.95          74.13
      6295       113.6996        5502.00        5562.72          74.18
      6296       113.7163        5567.00        5551.99          74.61
      6297       113.7331        5435.00        5542.33          73.72
      6298       113.7498        5354.00        5532.13          73.17
      6299       113.7665        5456.00        5522.29          73.86
      6300       113.7832        5496.00        5511.32          74.14
      6301       113.7999        5464.00        5499.25          73.92
      6302       113.8166        5534.00        5486.88          74.39
      6303       113.8333        5470.00        5475.22          73.96
      6304       113.8500        5487.00        5464.31          74.07
      6305       113.8667        5407.00        5456.89          73.53
      6306       113.8835        5385.00        5454.06          73.38
      6307       113.9002        5448.00        5455.59          73.81
      6308       113.9169        5465.00        5463.90          73.93
      6309       113.9336        5420.00        5475.43          73.62
      6310       113.9503        5589.00        5493.40          74.76
      6311       113.9670        5496.00        5516.85          74.14
      6312       113.9837        5527.00        5545.40          74.34
      6313       114.0004        5509.00        5578.56          74.22
      6314       114.0172        5632.00        5615.60          75.05
      6315       114.0339        5817.00        5655.95          76.27
      6316       114.0506        5750.00        5699.23          75.83
      6317       114.0673        5812.00        5745.21          76.24
      6318       114.0840        5807.00        5793.65          76.20
      6319       114.1007        5854.00        5843.78          76.51
      6320       114.1174        5876.00        5895.35          76.66
      6321       114.1341        6095.00        5944.06          78.07
      6322       114.1508        6100.00        5988.22          78.10
      6323       114.1675        6417.00        6023.84          80.11
      6324       114.1843        6175.00        6048.27          78.58
      6325       114.2010        6226.00        6062.85          78.90
      6326       114.2177        6019.00        6062.78          77.58
      6327       114.2344        6092.00        6053.98          78.05
      6328       114.2511        6100.00        6041.32          78.10
      6329       114.2678        5963.00        6029.28          77.22
      6330       114.2845        5922.00        6022.59          76.95
      6331       114.3012        5852.00        6024.31          76.50
      6332       114.3179        6124.00        6037.36          78.26
      6333       114.3347        5969.00        6062.41          77.26
      6334       114.3514        6124.00        6099.83          78.26
      6335       114.3681        6157.00        6146.91          78.47
      6336       114.3848        6304.00        6202.93          79.40
      6337       114.4015        6431.00        6261.26          80.19
      6338       114.4182        6566.00        6318.84          81.03
      6339       114.4349        6584.00        6374.58          81.14
      6340       114.4516        6445.00        6420.15          80.28
      6341       114.4683        6467.00        6457.45          80.42
      6342       114.4851        6306.00        6487.09          79.41
      6343       114.5018        6522.00        6510.57          80.76
      6344       114.5185        6335.00        6529.56          79.59
      6345       114.5352        6430.00        6545.62          80.19
      6346       114.5519        6511.00        6559.95          80.69
      6347       114.5686        6520.00        6571.42          80.75
      6348       114.5853        6495.00        6579.28          80.59
      6349       114.6020        6587.00        6581.50          81.16
      6350       114.6188        6555.00        6575.84          80.96
      6351       114.6355        6639.00        6562.27          81.48
      6352       114.6522        6461.00        6539.42          80.38
      6353       114.6689        6379.00        6511.64          79.87
      6354       114.6856        6296.00        6483.29          79.35
      6355       114.7023        6228.00        6458.07          78.92
      6356       114.7190        6233.00        6439.09          78.95
      6357       114.7357        6256.00        6427.84          79.09
      6358       114.7524        6407.00        6424.24          80.04
      6359       114.7691        6456.00        6427.00          80.35
      6360       114.7859        6359.00        6433.41          79.74
      6361       114.8026        6519.00        6441.10          80.74
      6362       114.8193        6302.00        6448.10          79.39
      6363       114.8360        6528.00        6454.16          80.80
      6364       114.8527        6431.00        6457.73          80.19
      6365       114.8694        6636.00        6460.03          81.46
      6366       114.8861        6527.00        6463.37          80.79
      6367       114.9028        6315.00        6465.72          79.47
      6368       114.9195        6376.00        6471.02          79.85
      6369       114.9363        6254.00        6480.32          79.08
      6370       114.9530        6469.00        6494.78          80.43
      6371       114.9697        6402.00        6515.56          80.01
      6372       114.9864        6272.00        6542.90          79.20
      6373       115.0031        6438.00        6577.88          80.24
      6374       115.0198        6432.00        6620.20          80.20
      6375       115.0365        6415.00        6669.22          80.09
      6376       115.0532        6509.00        6723.38          80.68
      6377       115.0700        6561.00        6780.05          81.00
      6378       115.0867        6488.00        6835.43          80.55
      6379       115.1034        6641.00        6885.46          81.49
      6380       115.1201        6648.00        6925.53          81.54
      6381       115.1368        6667.00        6951.19          81.65
      6382       115.1535        6653.00        6959.00          81.57
      6383       115.1702        6670.00        6946.29          81.67
      6384       115.1869        6812.00        6912.41          82.53
      6385       115.2036        6686.00        6858.22          81.77
      6386       115.2204        6503.00        6786.07          80.64
      6387       115.2371        6371.00        6699.71          79.82
      6388       115.2538        6326.00        6603.94          79.54
      6389       115.2705        6345.00        6503.95          79.66
      6390       115.2872        6280.00        6404.71          79.25
      6391       115.3039        6106.00        6310.86          78.14
      6392       115.3206        6088.00        6225.78          78.03
      6393       115.3373        5982.00        6151.26          77.34
      6394       115.3540        5703.00        6089.74          75.52
      6395       115.3708        5911.00        6041.40          76.88
      6396       115.3875        5870.00        6005.52          76.62
      6397       115.4042        5937.00        5980.89          77.05
      6398       115.4209        5718.00        5966.17          75.62
      6399       115.4376        5943.00        5959.63          77.09
      6400       115.4543        5859.00        5960.37          76.54
      6401       115.4710        5736.00        5967.35          75.74
      6402       115.4877        5889.00        5979.81          76.74
      6403       115.5044        5805.00        5996.83          76.19
      6404       115.5212        5815.00        6017.03          76.26
      6405       115.5379        5671.00        6038.52          75.31
      6406       115.5546        5972.00        6058.83          77.28
      6407       115.5713        6025.00        6075.32          77.62
      6408       115.5880        5937.00        6085.10          77.05
      6409       115.6047        6024.00        6087.37          77.61
      6410       115.6214        5946.00        6080.57          77.11
      6411       115.6381        5973.00        6064.87          77.29
      6412       115.6548        5919.00        6041.37          76.93
      6413       115.6716        5792.00        6012.08          76.11
      6414       115.6883        5913.00        5979.78          76.90
      6415       115.7050        5929.00        5947.54          77.00
      6416       115.7217        5886.00        5918.38          76.72
      6417       115.7384        5814.00        5894.99          76.25
      6418       115.7551        5922.00        5879.58          76.95
      6419       115.7718        5812.00        5873.84          76.24
      6420       115.7885        5908.00        5878.70          76.86
      6421       115.8053        5819.00        5895.50          76.28
      6422       115.8220        5789.00        5924.26          76.09
      6423       115.8387        5880.00        5964.89          76.68
      6424       115.8554        5845.00        6016.83          76.45
      6425       115.8721        6055.00        6079.15          77.81
      6426       115.8888        5998.00        6150.70          77.45
      6427       115.9055        6287.00        6229.92          79.29
      6428       115.9222        6352.00        6314.80          79.70
      6429       115.9389        6489.00        6402.82          80.55
      6430       115.9557        6538.00        6490.64          80.86
      6431       115.9724        6638.00        6574.73          81.47
      6432       115.9891        6629.00        6651.45          81.42
      6433       116.0058        6927.00        6718.70          83.23
      6434       116.0225        6636.00        6776.51          81.46
      6435       116.0392        6723.00        6827.84          81.99
      6436       116.0559        6886.00        6878.77          82.98
      6437       116.0726        6827.00        6935.92          82.63
      6438       116.0893        6795.00        7005.78          82.43
      6439       116.1060        6935.00        7093.67          83.28
      6440       116.1228        7069.00        7202.96          84.08
      6441       116.1395        7088.00        7334.74          84.19
      6442       116.1562        7261.00        7487.41          85.21
      6443       116.1729        7470.00        7656.76          86.43
      6444       116.1896        7757.00        7836.86          88.07
      6445       116.2063        7962.00        8020.51          89.23
      6446       116.2230        8193.00        8198.98          90.52
      6447       116.2397        8335.00        8367.03          91.30
      6448       116.2565        8559.00        8516.59          92.51
      6449       116.2732        8615.00        8641.51          92.82
      6450       116.2899        8550.00        8737.35          92.47
      6451       116.3066        8655.00        8802.57          93.03
      6452       116.3233        8518.00        8840.03          92.29
      6453       116.3400        8513.00        8857.24          92.27
      6454       116.3567        8587.00        8864.86          92.67
      6455       116.3734        8355.00        8874.24          91.41
      6456       116.3902        8611.00        8894.91          92.80
      6457       116.4069        8501.00        8932.81          92.20
      6458       116.4236        8757.00        8989.53          93.58
      6459       116.4403        8839.00        9062.20          94.02
      6460       116.4570        9098.00        9143.89          95.38
      6461       116.4737        9191.00        9223.87          95.87
      6462       116.4904        9336.00        9292.68          96.62
      6463       116.5071        9448.00        9338.23          97.20
      6464       116.5238        9399.00        9351.13          96.95
      6465       116.5405        9165.00        9325.17          95.73
      6466       116.5573        9032.00        9259.96          95.04
      6467       116.5740        8754.00        9159.16          93.56
      6468       116.5907        8565.00        9031.59          92.55
      6469       116.6074        8407.00        8887.75          91.69
      6470       116.6241        8228.00        8738.34          90.71
      6471       116.6408        8083.00        8591.62          89.91
      6472       116.6575        7752.00        8452.22          88.05
      6473       116.6742        7816.00        8324.06          88.41
      6474       116.6909        7730.00        8207.67          87.92
      6475       116.7077        7785.00        8101.16          88.23
      6476       116.7244        7655.00        8001.85          87.49
      6477       116.7411        7410.00        7906.42          86.08
      6478       116.7578        7432.00        7812.23          86.21
      6479       116.7745        7416.00        7717.98          86.12
      6480       116.7912        7557.00        7624.88          86.93
      6481       116.8079        7223.00        7536.08          84.99
      6482       116.8246        7099.00        7455.50          84.26
      6483       116.8413        6883.00        7386.86          82.96
      6484       116.8581        6930.00        7331.91          83.25
      6485       116.8748        6944.00        7292.92          83.33
      6486       116.8915        6989.00        7268.10          83.60
      6487       116.9082        7138.00        7254.87          84.49
      6488       116.9249        7170.00        7248.20          84.68
      6489       116.9416        7150.00        7242.19          84.56
      6490       116.9583        7209.00        7231.44          84.91
      6491       116.9750        7217.00        7209.16          84.95
      6492       116.9917        7048.00        7170.06          83.95
      6493       117.0085        6912.00        7110.80          83.14
      6494       117.0252        6752.00        7031.09          82.17
      6495       117.0419        6811.00        6932.89          82.53
      6496       117.0586        6530.00        6821.35          80.81
      6497       117.0753        6353.00        6702.10          79.71
      6498       117.0920        6222.00        6580.77          78.88
      6499       117.1087        6213.00        6462.31          78.82
      6500       117.1254        6006.00        6350.07          77.50
      6501       117.1422        5886.00        6247.56          76.72
      6502       117.1589        5935.00        6155.70          77.04
      6503       117.1756        5826.00        6075.16          76.33
      6504       117.1923        5921.00        6004.49          76.95
      6505       117.2090        5662.00        5944.97          75.25
      6506       117.2257        5732.00        5894.32          75.71
      6507       117.2424        5494.00        5851.16          74.12
      6508       117.2591        5481.00        5813.00          74.03
      6509       117.2758        5472.00        5780.28          73.97
      6510       117.2926        5514.00        5750.48          74.26
      6511       117.3093        5468.00        5722.36          73.95
      6512       117.3260        5431.00        5694.58          73.70
      6513       117.3427        5616.00        5667.33          74.94
      6514       117.3594        5534.00        5640.17          74.39
      6515       117.3761        5536.00        5612.99          74.40
      6516       117.3928        5449.00        5586.16          73.82
      6517       117.4095        5544.00        5560.03          74.46
      6518       117.4262        5409.00        5535.14          73.55
      6519       117.4429        5257.00        5511.81          72.51
      6520       117.4597        5316.00        5490.43          72.91
      6521       117.4764        5444.00        5471.16          73.78
      6522       117.4931        5355.00        5454.08          73.18
      6523       117.5098        5339.00        5439.27          73.07
      6524       117.5265        5267.00        5426.75          72.57
      6525       117.5432        5322.00        5416.46          72.95
      6526       117.5599        5376.00        5408.27          73.32
      6527       117.5767        5245.00        5402.05          72.42
      6528       117.5934        5162.00        5397.63          71.85
      6529       117.6101        5251.00        5394.81          72.46
      6530       117.6268        5218.00        5393.38          72.24
      6531       117.6435        5076.00        5393.11          71.25
      6532       117.6602        5249.00        5393.77          72.45
      6533       117.6769        5392.00        5394.59          73.43
      6534       117.6936        5158.00        5396.23          71.82
      6535       117.7103        5492.00        5397.88          74.11
      6536       117.7270        5395.00        5398.68          73.45
      6537       117.7438        5304.00        5399.23          72.83
      6538       117.7605        5299.00        5398.75          72.79
      6539       117.7772        5271.00        5397.17          72.60
      6540       117.7939        5473.00        5394.26          73.98
      6541       117.8106        5262.00        5390.30          72.54
      6542       117.8273        5243.00        5385.58          72.41
      6543       117.8440        5284.00        5380.43          72.69
      6544       117.8607        5257.00        5375.17          72.51
      6545       117.8774        5298.00        5370.08          72.79
      6546       117.8941        5177.00        5365.39          71.95
      6547       117.9109        5270.00        5361.31          72.59
      6548       117.9276        5320.00        5357.94          72.94
      6549       117.9443        5417.00        5355.29          73.60
      6550       117.9610        5255.00        5353.62          72.49
      6551       117.9777        5244.00        5352.98          72.42
      6552       117.9944        5291.00        5353.32          72.74
      6553       118.0111        5297.00        5354.79          72.78
      6554       118.0278        5304.00        5357.49          72.83
      6555       118.0446        5299.00        5361.60          72.79
      6556       118.0613        5259.00        5367.34          72.52
      6557       118.0780        5284.00        5374.93          72.69
      6558       118.0947        5328.00        5384.65          72.99
      6559       118.1114        5257.00        5395.30          72.51
      6560       118.1281        5335.00        5410.09          73.04
      6561       118.1448        5403.00        5427.74          73.51
      6562       118.1615        5404.00        5448.34          73.51
      6563       118.1782        5454.00        5471.90          73.85
      6564       118.1950        5310.00        5498.29          72.87
      6565       118.2117        5430.00        5527.10          73.69
      6566       118.2284        5375.00        5557.78          73.31
      6567       118.2451        5505.00        5589.55          74.20
      6568       118.2618        5357.00        5621.13          73.19
      6569       118.2785        5578.00        5651.09          74.69
      6570       118.2952        5621.00        5677.77          74.97
      6571       118.3119        5501.00        5699.27          74.17
      6572       118.3287        5510.00        5712.66          74.23
      6573       118.3454        5588.00        5718.88          74.75
      6574       118.3621        5523.00        5716.14          74.32
      6575       118.3788        5543.00        5704.69          74.45
      6576       118.3955        5526.00        5685.69          74.34
      6577       118.4122        5517.00        5660.74          74.28
      6578       118.4289        5493.00        5628.89          74.11
      6579       118.4456        5357.00        5597.77          73.19
      6580       118.4623        5307.00        5566.08          72.85
      6581       118.4791        5423.00        5534.95          73.64
      6582       118.4958        5381.00        5506.04          73.36
      6583       118.5125        5390.00        5479.89          73.42
      6584       118.5292        5335.00        5457.08          73.04
      6585       118.5459        5252.00        5438.05          72.47
      6586       118.5626        5327.00        5423.21          72.99
      6587       118.5793        5274.00        5412.15          72.62
      6588       118.5960        5223.00        5404.38          72.27
      6589       118.6127        5415.00        5401.21          73.59
      6590       118.6294        5194.00        5400.02          72.07
      6591       118.6462        5215.00        5403.67          72.21
      6592       118.6629        5294.00        5410.27          72.76
      6593       118.6796        5249.00        5416.46          72.45
      6594       118.6963        5408.00        5427.75          73.54
      6595       118.7130        5377.00        5440.58          73.33
      6596       118.7297        5259.00        5455.06          72.52
      6597       118.7464        5360.00        5468.96          73.21
      6598       118.7631        5319.00        5482.16          72.93
      6599       118.7799        5400.00        5493.70          73.48
      6600       118.7966        5347.00        5502.20          73.12
      6601       118.8133        5572.00        5507.97          74.65
      6602       118.8300        5482.00        5509.96          74.04
      6603       118.8467        5374.00        5508.08          73.31
      6604       118.8634        5439.00        5502.77          73.75
      6605       118.8801        5401.00        5494.43          73.49
      6606       118.8968        5380.00        5483.22          73.35
      6607       118.9135        5275.00        5472.74          72.63
      6608       118.9303        5281.00        5462.48          72.67
      6609       118.9470        5360.00        5453.14          73.21
      6610       118.9637        5302.00        5445.54          72.81
      6611       118.9804        5417.00        5440.00          73.60
      6612       118.9971        5173.00        5436.76          71.92
      6613       119.0138        5380.00        5435.85          73.35
      6614       119.0305        5411.00        5437.08          73.56
      6615       119.0472        5409.00        5440.05          73.55
      6616       119.0639        5380.00        5444.36          73.35
      6617       119.0807        5505.00        5449.39          74.20
      6618       119.0974        5282.00        5453.97          72.68
      6619       119.1141        5303.00        5456.56          72.82
      6620       119.1308        5437.00        5457.94          73.74
      6621       119.1475        5238.00        5456.79          72.37
      6622       119.1642        5431.00        5451.48          73.70
      6623       119.1809        5342.00        5445.21          73.09
      6624       119.1976        5258.00        5436.84          72.51
      6625       119.2143        5340.00        5427.41          73.08
      6626       119.2311        5267.00        5417.56          72.57
      6627       119.2478        5281.00        5406.69          72.67
      6628       119.2645        5287.00        5396.01          72.71
      6629       119.2812        5221.00        5385.99          72.26
      6630       119.2979        5348.00        5376.93          73.13
      6631       119.3146        5428.00        5369.12          73.68
      6632       119.3313        5237.00        5362.79          72.37
      6633       119.3480        5279.00        5358.16          72.66
      6634       119.3647        5359.00        5355.18          73.21
      6635       119.3815        5324.00        5354.30          72.97
      6636       119.3982        5377.00        5355.39          73.33
      6637       119.4149        5326.00        5358.52          72.98
      6638       119.4316        5328.00        5363.74          72.99
      6639       119.4483        5344.00        5371.01          73.10
      6640       119.4650        5307.00        5380.17          72.85
      6641       119.4817        5381.00        5391.61          73.36
      6642       119.4984        5380.00        5405.10          73.35
      6643       119.5152        5436.00        5420.52          73.73
      6644       119.5319        5374.00        5437.69          73.31
      6645       119.5486        5387.00        5457.84          73.40
      6646       119.5653        5461.00        5478.05          73.90
      6647       119.5820        5438.00        5498.97          73.74
      6648       119.5987        5533.00        5520.20          74.38
      6649       119.6154        5406.00        5541.19          73.53
      6650       119.6321        5465.00        5561.38          73.93
      6651       119.6488        5405.00        5580.27          73.52
      6652       119.6656        5562.00        5597.39          74.58
      6653       119.6823        5497.00        5612.15          74.14
      6654       119.6990        5558.00        5623.97          74.55
      6655       119.7157        5555.00        5632.57          74.53
      6656       119.7324        5526.00        5636.46          74.34
      6657       119.7491        5670.00        5635.48          75.30
      6658       119.7658        5653.00        5629.30          75.19
      6659       119.7825        5671.00        5619.39          75.31
      6660       119.7992        5490.00        5603.85          74.09
      6661       119.8159        5618.00        5584.99          74.95
      6662       119.8327        5323.00        5564.05          72.96
      6663       119.8494        5511.00        5542.38          74.24
      6664       119.8661        5367.00        5521.11          73.26
      6665       119.8828        5526.00        5501.19          74.34
      6666       119.8995        5490.00        5483.39          74.09
      6667       119.9162        5476.00        5468.16          74.00
      6668       119.9329        5341.00        5455.80          73.08
      6669       119.9496        5342.00        5446.34          73.09
      6670       119.9664        5375.00        5439.91          73.31
      6671       119.9831        5441.00        5436.24          73.76
      6672       119.9998        5266.00        5434.94          72.57
      6673       120.0165        5501.00        5435.59          74.17
      6674       120.0332        5466.00        5438.35          73.93
      6675       120.0499        5475.00        5441.44          73.99
      6676       120.0666        5443.00        5445.07          73.78
      6677       120.0833        5403.00        5448.94          73.51
      6678       120.1001        5285.00        5452.90          72.70
      6679       120.1168        5324.00        5456.88          72.97
      6680       120.1335        5373.00        5460.85          73.30
      6681       120.1502        5446.00        5464.71          73.80
      6682       120.1669        5297.00        5468.31          72.78
      6683       120.1836        5352.00        5471.37          73.16
      6684       120.2003        5455.00        5473.53          73.86
      6685       120.2170        5433.00        5474.37          73.71
      6686       120.2337        5486.00        5473.50          74.07
      6687       120.2504        5413.00        5470.64          73.57
      6688       120.2672        5424.00        5465.67          73.65
      6689       120.2839        5513.00        5459.37          74.25
      6690       120.3006        5432.00        5450.86          73.70
      6691       120.3173        5279.00        5441.33          72.66
      6692       120.3340        5486.00        5431.46          74.07
      6693       120.3507        5429.00        5421.91          73.68
      6694       120.3674        5477.00        5413.32          74.01
      6695       120.3841        5334.00        5406.16          73.03
      6696       120.4008        5405.00        5400.92          73.52
      6697       120.4175        5295.00        5397.93          72.77
      6698       120.4343        5336.00        5398.44          73.05
      6699       120.4510        5423.00        5400.71          73.64
      6700       120.4677        5533.00        5405.79          74.38
      6701       120.4844        5542.00        5413.66          74.44
      6702       120.5011        5399.00        5424.25          73.48
      6703       120.5178        5338.00        5437.32          73.06
      6704       120.5345        5399.00        5452.37          73.48
      6705       120.5512        5466.00        5469.57          73.93
      6706       120.5680        5617.00        5488.28          74.95
      6707       120.5847        5557.00        5507.75          74.55
      6708       120.6014        5566.00        5528.21          74.61
      6709       120.6181        5614.00        5548.79          74.93
      6710       120.6348        5581.00        5568.81          74.71
      6711       120.6515        5538.00        5587.56          74.42
      6712       120.6682        5627.00        5604.40          75.01
      6713       120.6849        5619.00        5618.73          74.96
      6714       120.7016        5619.00        5630.37          74.96
      6715       120.7184        5554.00        5639.58          74.53
      6716       120.7351        5538.00        5647.07          74.42
      6717       120.7518        5715.00        5653.82          75.60
      6718       120.7685        5550.00        5660.96          74.50
      6719       120.7852        5476.00        5669.52          74.00
      6720       120.8019        5597.00        5680.31          74.81
      6721       120.8186        5788.00        5693.87          76.08
      6722       120.8353        5741.00        5710.41          75.77
      6723       120.8521        5657.00        5729.83          75.21
      6724       120.8688        5697.00        5751.78          75.48
      6725       120.8855        5868.00        5775.71          76.60
      6726       120.9022        5841.00        5801.09          76.43
      6727       120.9189        5908.00        5828.08          76.86
      6728       120.9356        5822.00        5856.07          76.30
      6729       120.9523        6082.00        5883.08          77.99
      6730       120.9690        6068.00        5909.83          77.90
      6731       120.9857        6221.00        5935.64          78.87
      6732       121.0025        6242.00        5959.59          79.01
      6733       121.0192        6327.00        5980.33          79.54
      6734       121.0359        6317.00        5996.19          79.48
      6735       121.0526        6232.00        6005.82          78.94
      6736       121.0693        6255.00        6007.85          79.09
      6737       121.0860        6148.00        6001.59          78.41
      6738       121.1027        5925.00        5987.83          76.97
      6739       121.1194        5918.00        5967.53          76.93
      6740       121.1361        5998.00        5942.46          77.45
      6741       121.1529        5867.00        5914.36          76.60
      6742       121.1696        5906.00        5885.00          76.85
      6743       121.1863        5922.00        5855.85          76.95
      6744       121.2030        5731.00        5828.24          75.70
      6745       121.2197        5863.00        5803.43          76.57
      6746       121.2364        5841.00        5782.59          76.43
      6747       121.2531        5771.00        5766.82          75.97
      6748       121.2698        5852.00        5757.01          76.50
      6749       121.2866        5853.00        5753.83          76.50
      6750       121.3033        5700.00        5757.77          75.50
      6751       121.3200        5845.00        5768.96          76.45
      6752       121.3367        5815.00        5787.06          76.26
      6753       121.3534        5890.00        5811.82          76.75
      6754       121.3701        5889.00        5842.60          76.74
      6755       121.3868        5859.00        5878.25          76.54
      6756       121.4035        6184.00        5918.12          78.64
      6757       121.4202        6147.00        5961.27          78.40
      6758       121.4369        6143.00        6006.02          78.38
      6759       121.4537        6236.00        6051.09          78.97
      6760       121.4704        6441.00        6095.65          80.26
      6761       121.4871        6404.00        6138.55          80.03
      6762       121.5038        6524.00        6178.36          80.77
      6763       121.5205        6501.00        6213.17          80.63
      6764       121.5372        6497.00        6240.91          80.60
      6765       121.5539        6471.00        6259.35          80.44
      6766       121.5706        6543.00        6266.51          80.89
      6767       121.5873        6541.00        6261.42          80.88
      6768       121.6040        6435.00        6244.76          80.22
      6769       121.6208        6433.00        6217.63          80.21
      6770       121.6375        6157.00        6183.38          78.47
      6771       121.6542        6223.00        6145.67          78.89
      6772       121.6709        6191.00        6108.25          78.68
      6773       121.6876        5985.00        6074.54          77.36
      6774       121.7043        5989.00        6047.92          77.39
      6775       121.7210        6003.00        6030.00          77.48
      6776       121.7377        6012.00        6022.78          77.54
      6777       121.7545        6074.00        6027.27          77.94
      6778       121.7712        6068.00        6044.65          77.90
      6779       121.7879        6125.00        6072.96          78.26
      6780       121.8046        6208.00        6112.05          78.79
      6781       121.8213        6338.00        6160.37          79.61
      6782       121.8380        6353.00        6215.64          79.71
      6783       121.8547        6456.00        6275.01          80.35
      6784       121.8714        6509.00        6335.21          80.68
      6785       121.8881        6484.00        6392.59          80.52
      6786       121.9049        6442.00        6443.60          80.26
      6787       121.9216        6663.00        6485.69          81.63
      6788       121.9383        6602.00        6517.27          81.25
      6789       121.9550        6641.00        6538.61          81.49
      6790       121.9717        6705.00        6551.39          81.88
      6791       121.9884        6480.00        6558.27          80.50
      6792       122.0051        6564.00        6562.02          81.02
      6793       122.0218        6448.00        6565.19          80.30
      6794       122.0386        6517.00        6569.44          80.73
      6795       122.0553        6753.00        6575.16          82.18
      6796       122.0720        6694.00        6582.73          81.82
      6797       122.0887        6808.00        6590.88          82.51
      6798       122.1054        6617.00        6598.20          81.34
      6799       122.1221        6596.00        6602.40          81.22
      6800       122.1388        6694.00        6601.37          81.82
      6801       122.1555        6597.00        6592.85          81.22
      6802       122.1723        6703.00        6574.85          81.87
      6803       122.1890        6721.00        6546.26          81.98
      6804       122.2057        6705.00        6507.14          81.88
      6805       122.2224        6528.00        6459.11          80.80
      6806       122.2391        6406.00        6404.32          80.04
      6807       122.2558        6537.00        6346.31          80.85
      6808       122.2725        6237.00        6288.28          78.97
      6809       122.2892        6316.00        6232.27          79.47
      6810       122.3059        6344.00        6180.69          79.65
      6811       122.3226        6091.00        6134.96          78.04
      6812       122.3393        5986.00        6096.18          77.37
      6813       122.3561        6295.00        6063.12          79.34
      6814       122.3728        6108.00        6035.89          78.15
      6815       122.3895        6141.00        6013.15          78.36
      6816       122.4062        6217.00        5993.40          78.85
      6817       122.4229        6209.00        5975.13          78.80
      6818       122.4396        6090.00        5957.08          78.04
      6819       122.4563        6043.00        5938.63          77.74
      6820       122.4730        5995.00        5919.90          77.43
      6821       122.4898        6021.00        5901.62          77.60
      6822       122.5065        5869.00        5884.99          76.61
      6823       122.5232        5870.00        5871.26          76.62
      6824       122.5399        5877.00        5861.70          76.66
      6825       122.5566        5857.00        5857.30          76.53
      6826       122.5733        6031.00        5859.02          77.66
      6827       122.5900        5947.00        5866.55          77.12
      6828       122.6067        5961.00        5880.16          77.21
      6829       122.6235        5893.00        5899.37          76.77
      6830       122.6402        6074.00        5923.22          77.94
      6831       122.6569        5975.00        5950.45          77.30
      6832       122.6736        6171.00        5979.38          78.56
      6833       122.6903        6315.00        6008.42          79.47
      6834       122.7070        6462.00        6036.08          80.39
      6835       122.7237        6460.00        6061.33          80.37
      6836       122.7404        6291.00        6083.62          79.32
      6837       122.7571        6337.00        6102.91          79.61
      6838       122.7738        6483.00        6118.52          80.52
      6839       122.7906        6436.00        6130.07          80.22
      6840       122.8073        6396.00        6136.77          79.97
      6841       122.8240        6467.00        6137.30          80.42
      6842       122.8407        6222.00        6130.38          78.88
      6843       122.8574        6263.00        6114.11          79.14
      6844       122.8741        5994.00        6087.83          77.42
      6845       122.8908        6043.00        6051.65          77.74
      6846       122.9075        6079.00        6006.63          77.97
      6847       122.9242        5919.00        5954.65          76.93
      6848       122.9410        5836.00        5898.11          76.39
      6849       122.9577        5782.00        5839.41          76.04
      6850       122.9744        5784.00        5781.11          76.05
      6851       122.9911        5782.00        5725.14          76.04
      6852       123.0078        5721.00        5673.31          75.64
      6853       123.0245        5685.00        5626.56          75.40
      6854       123.0412        5680.00        5586.91          75.37
      6855       123.0579        5646.00        5554.98          75.14
      6856       123.0746        5640.00        5531.54          75.10
      6857       123.0914        5586.00        5517.60          74.74
      6858       123.1081        5797.00        5513.20          76.14
      6859       123.1248        5814.00        5519.02          76.25
      6860       123.1415        5647.00        5535.81          75.15
      6861       123.1582        5663.00        5562.84          75.25
      6862       123.1749        5807.00        5600.48          76.20
      6863       123.1916        5775.00        5648.50          75.99
      6864       123.2083        5978.00        5706.27          77.32
      6865       123.2251        5875.00        5773.03          76.65
      6866       123.2418        5905.00        5847.16          76.84
      6867       123.2585        5948.00        5927.46          77.12
      6868       123.2752        6274.00        6011.79          79.21
      6869       123.2919        6266.00        6096.79          79.16
      6870       123.3086        6432.00        6179.48          80.20
      6871       123.3253        6493.00        6255.77          80.58
      6872       123.3420        6384.00        6321.26          79.90
      6873       123.3588        6498.00        6371.52          80.61
      6874       123.3755        6576.00        6402.38          81.09
      6875       123.3922        6427.00        6411.17          80.17
      6876       123.4089        6425.00        6396.90          80.16
      6877       123.4256        6439.00        6359.91          80.24
      6878       123.4423        6116.00        6304.71          78.20
      6879       123.4590        6315.00        6234.60          79.47
      6880       123.4757        5980.00        6154.17          77.33
      6881       123.4924        5802.00        6067.83          76.17
      6882       123.5091        5763.00        5979.75          75.91
      6883       123.5259        5856.00        5893.27          76.52
      6884       123.5426        5640.00        5811.26          75.10
      6885       123.5593        5570.00        5735.73          74.63
      6886       123.5760        5528.00        5668.70          74.35
      6887       123.5927        5444.00        5611.12          73.78
      6888       123.6094        5587.00        5563.81          74.75
      6889       123.6261        5494.00        5527.16          74.12
      6890       123.6428        5470.00        5501.16          73.96
      6891       123.6595        5771.00        5485.73          75.97
      6892       123.6763        5519.00        5480.05          74.29
      6893       123.6930        5509.00        5483.65          74.22
      6894       123.7097        5604.00        5495.63          74.86
      6895       123.7264        5642.00        5515.01          75.11
      6896       123.7431        5618.00        5540.75          74.95
      6897       123.7598        5575.00        5571.42          74.67
      6898       123.7765        5472.00        5606.18          73.97
      6899       123.7932        5651.00        5643.24          75.17
      6900       123.8100        5801.00        5681.31          76.16
      6901       123.8267        5743.00        5719.40          75.78
      6902       123.8434        5680.00        5756.14          75.37
      6903       123.8601        5817.00        5790.19          76.27
      6904       123.8768        5777.00        5820.32          76.01
      6905       123.8935        5723.00        5845.29          75.65
      6906       123.9102        5833.00        5864.22          76.37
      6907       123.9269        5732.00        5876.94          75.71
      6908       123.9436        5873.00        5883.75          76.64
      6909       123.9603        5843.00        5885.35          76.44
      6910       123.9771        5867.00        5883.37          76.60
      6911       123.9938        5684.00        5880.76          75.39
      6912       124.0105        5792.00        5878.47          76.11
      6913       124.0272        5799.00        5877.90          76.15
      6914       124.0439        5744.00        5880.05          75.79
      6915       124.0606        5878.00        5885.49          76.67
      6916       124.0773        5847.00        5894.36          76.47
      6917       124.0940        5723.00        5906.52          75.65
      6918       124.1107        5718.00        5921.65          75.62
      6919       124.1274        5956.00        5939.28          77.18
      6920       124.1442        5870.00        5958.79          76.62
      6921       124.1609        6152.00        5979.19          78.43
      6922       124.1776        6072.00        5999.30          77.92
      6923       124.1943        6080.00        6017.51          77.97
      6924       124.2110        6024.00        6032.00          77.61
      6925       124.2277        6155.00        6040.72          78.45
      6926       124.2444        6021.00        6041.78          77.60
      6927       124.2611        6034.00        6033.60          77.68
      6928       124.2779        6167.00        6015.21          78.53
      6929       124.2946        5976.00        5986.50          77.30
      6930       124.3113        5796.00        5948.22          76.13
      6931       124.3280        5792.00        5900.42          76.11
      6932       124.3447        5827.00        5847.80          76.33
      6933       124.3614        5703.00        5791.46          75.52
      6934       124.3781        5703.00        5733.54          75.52
      6935       124.3948        5478.00        5676.18          74.01
      6936       124.4116        5516.00        5621.07          74.27
      6937       124.4283        5447.00        5569.77          73.80
      6938       124.4450        5571.00        5523.41          74.64
      6939       124.4617        5468.00        5482.86          73.95
      6940       124.4784        5506.00        5448.83          74.20
      6941       124.4951        5486.00        5421.84          74.07
      6942       124.5118        5455.00        5401.74          73.86
      6943       124.5285        5579.00        5389.45          74.69
      6944       124.5453        5331.00        5384.52          73.01
      6945       124.5620        5457.00        5386.73          73.87
      6946       124.5787        5496.00        5395.71          74.14
      6947       124.5954        5491.00        5409.58          74.10
      6948       124.6121        5472.00        5430.52          73.97
      6949       124.6288        5588.00        5456.46          74.75
      6950       124.6455        5620.00        5486.75          74.97
      6951       124.6622        5547.00        5520.70          74.48
      6952       124.6789        5556.00        5557.63          74.54
      6953       124.6956        5527.00        5596.62          74.34
      6954       124.7124        5652.00        5636.74          75.18
      6955       124.7291        5585.00        5676.68          74.73
      6956       124.7458        5843.00        5715.03          76.44
      6957       124.7625        5555.00        5750.19          74.53
      6958       124.7792        5792.00        5780.46          76.11
      6959       124.7959        5821.00        5804.29          76.30
      6960       124.8126        5830.00        5820.33          76.35
      6961       124.8293        6022.00        5827.72          77.60
      6962       124.8460        5825.00        5826.03          76.32
      6963       124.8628        5864.00        5814.68          76.58
      6964       124.8795        5671.00        5795.73          75.31
      6965       124.8962        5737.00        5769.65          75.74
      6966       124.9129        5627.00        5738.07          75.01
      6967       124.9296        5577.00        5702.82          74.68
      6968       124.9463        5697.00        5666.09          75.48
      6969       124.9630        5508.00        5629.77          74.22
      6970       124.9797        5387.00        5595.58          73.40
      6971       124.9965        5480.00        5564.90          74.03
      6972       125.0132        5501.00        5538.73          74.17
      6973       125.0299        5544.00        5517.58          74.46
      6974       125.0466        5438.00        5501.56          73.74
      6975       125.0633        5413.00        5490.39          73.57
      6976       125.0800        5704.00        5483.45          75.52
      6977       125.0967        5574.00        5480.19          74.66
      6978       125.1134        5587.00        5478.68          74.75
      6979       125.1301        5577.00        5478.13          74.68
      6980       125.1468        5724.00        5476.86          75.66
      6981       125.1636        5652.00        5475.53          75.18
      6982       125.1803        5616.00        5473.19          74.94
      6983       125.1970        5673.00        5469.91          75.32
      6984       125.2137        5624.00        5466.01          74.99
      6985       125.2304        5514.00        5461.87          74.26
      6986       125.2471        5463.00        5457.70          73.91
      6987       125.2638        5497.00        5453.63          74.14
      6988       125.2805        5516.00        5449.46          74.27
      6989       125.2972        5441.00        5444.83          73.76
      6990       125.3139        5479.00        5439.26          74.02
      6991       125.3307        5469.00        5431.27          73.95
      6992       125.3474        5498.00        5422.58          74.15
      6993       125.3641        5400.00        5411.97          73.48
      6994       125.3808        5298.00        5399.51          72.79
      6995       125.3975        5376.00        5385.38          73.32
      6996       125.4142        5569.00        5369.93          74.63
      6997       125.4309        5326.00        5353.59          72.98
      6998       125.4476        5270.00        5336.97          72.59
      6999       125.4644        5421.00        5320.73          73.63
      7000       125.4811        5249.00        5305.72          72.45
      7001       125.4978        5278.00        5292.72          72.65
      7002       125.5145        5408.00        5282.45          73.54
      7003       125.5312        5209.00        5275.43          72.17
      7004       125.5479        5405.00        5272.08          73.52
      7005       125.5646        5316.00        5274.18          72.91
      7006       125.5813        5320.00        5278.15          72.94
      7007       125.5981        5373.00        5285.29          73.30
      7008       125.6148        5439.00        5294.99          73.75
      7009       125.6315        5304.00        5306.61          72.83
      7010       125.6482        5526.00        5318.71          74.34
      7011       125.6649        5397.00        5330.27          73.46
      7012       125.6816        5411.00        5340.19          73.56
      7013       125.6983        5539.00        5346.78          74.42
      7014       125.7150        5610.00        5349.07          74.90
      7015       125.7318        5605.00        5346.18          74.87
      7016       125.7485        5448.00        5337.66          73.81
      7017       125.7652        5372.00        5323.44          73.29
      7018       125.7819        5389.00        5303.94          73.41
      7019       125.7986        5260.00        5279.90          72.53
      7020       125.8153        5344.00        5252.13          73.10
      7021       125.8320        5196.00        5221.59          72.08
      7022       125.8487        5374.00        5189.10          73.31
      7023       125.8654        5125.00        5154.75          71.59
      7024       125.8822        5138.00        5119.39          71.68
      7025       125.8989        5237.00        5085.38          72.37
      7026       125.9156        5121.00        5052.03          71.56
      7027       125.9323        4989.00        5019.87          70.63
      7028       125.9490        5086.00        4989.49          71.32
      7029       125.9657        4977.00        4961.38          70.55
      7030       125.9824        4919.00        4935.56          70.14
      7031       125.9991        5051.00        4912.52          71.07
      7032       126.0158        5019.00        4892.38          70.84
      7033       126.0325        5121.00        4875.25          71.56
      7034       126.0493        4996.00        4861.32          70.68
      7035       126.0660        4916.00        4851.64          70.11
      7036       126.0827        5064.00        4843.37          71.16
      7037       126.0994        4905.00        4839.20          70.04
      7038       126.1161        4971.00        4837.07          70.51
      7039       126.1328        4864.00        4836.44          69.74
      7040       126.1495        4962.00        4837.92          70.44
      7041       126.1662        5061.00        4841.22          71.14
      7042       126.1829        4961.00        4846.07          70.43
      7043       126.1997        5024.00        4852.15          70.88
      7044       126.2164        5044.00        4859.06          71.02
      7045       126.2331        5055.00        4866.50          71.10
      7046       126.2498        5069.00        4873.79          71.20
      7047       126.2665        5045.00        4880.48          71.03
      7048       126.2832        5075.00        4885.99          71.24
      7049       126.2999        5094.00        4889.93          71.37
      7050       126.3166        4985.00        4891.73          70.60
      7051       126.3334        5091.00        4891.43          71.35
      7052       126.3501        5039.00        4888.83          70.99
      7053       126.3668        4931.00        4883.84          70.22
      7054       126.3835        5003.00        4876.53          70.73
      7055       126.4002        4929.00        4866.99          70.21
      7056       126.4169        5083.00        4854.96          71.30
      7057       126.4336        4914.00        4841.21          70.10
      7058       126.4503        5052.00        4825.47          71.08
      7059       126.4670        4958.00        4809.91          70.41
      7060       126.4837        4900.00        4792.14          70.00
      7061       126.5005        4968.00        4773.85          70.48
      7062       126.5172        4940.00        4755.54          70.29
      7063       126.5339        4945.00        4737.45          70.32
      7064       126.5506        4850.00        4720.01          69.64
      7065       126.5673        4937.00        4703.49          70.26
      7066       126.5840        5008.00        4688.04          70.77
      7067       126.6007        4891.00        4673.99          69.94
      7068       126.6174        4821.00        4661.60          69.43
      7069       126.6341        4908.00        4650.19          70.06
      7070       126.6509        4856.00        4640.84          69.68
      7071       126.6676        4928.00        4632.19          70.20
      7072       126.6843        4851.00        4625.57          69.65
      7073       126.7010        4782.00        4619.47          69.15
      7074       126.7177        4828.00        4614.51          69.48
      7075       126.7344        4797.00        4610.58          69.26
      7076       126.7511        4921.00        4607.23          70.15
      7077       126.7678        4842.00        4605.03          69.58
      7078       126.7846        4802.00        4603.50          69.30
      7079       126.8013        4854.00        4602.49          69.67
      7080       126.8180        4887.00        4601.75          69.91
      7081       126.8347        4782.00        4601.43          69.15
      7082       126.8514        4741.00        4601.21          68.85
      7083       126.8681        4804.00        4601.03          69.31
      7084       126.8848        4792.00        4600.66          69.22
      7085       126.9015        4815.00        4600.11          69.39
      7086       126.9183        4735.00        4599.30          68.81
      7087       126.9350        4837.00        4597.82          69.55
      7088       126.9517        4819.00        4595.65          69.42
      7089       126.9684        4721.00        4592.69          68.71
      7090       126.9851        4846.00        4588.78          69.61
      7091       127.0018        4781.00        4583.86          69.14
      7092       127.0185        4759.00        4578.65          68.99
      7093       127.0352        4800.00        4571.98          69.28
      7094       127.0519        4835.00        4564.58          69.53
      7095       127.0687        4800.00        4556.69          69.28
      7096       127.0854        4887.00        4548.48          69.91
      7097       127.1021        4736.00        4540.12          68.82
      7098       127.1188        4828.00        4531.78          69.48
      7099       127.1355        4779.00        4523.59          69.13
      7100       127.1522        4825.00        4515.66          69.46
      7101       127.1689        4754.00        4508.11          68.95
      7102       127.1856        4878.00        4500.82          69.84
      7103       127.2023        4746.00        4494.17          68.89
      7104       127.2190        4788.00        4488.02          69.20
      7105       127.2358        4790.00        4482.37          69.21
      7106       127.2525        4652.00        4477.59          68.21
      7107       127.2692        4799.00        4472.95          69.27
      7108       127.2859        4818.00        4468.76          69.41
      7109       127.3026        4840.00        4464.99          69.57
      7110       127.3193        4735.00        4461.44          68.81
      7111       127.3360        4857.00        4458.42          69.69
      7112       127.3527        4797.00        4455.73          69.26
      7113       127.3694        4831.00        4453.20          69.51
      7114       127.3862        4796.00        4451.04          69.25
      7115       127.4029        4792.00        4449.25          69.22
      7116       127.4196        4687.00        4447.81          68.46
      7117       127.4363        4816.00        4446.75          69.40
      7118       127.4530        4819.00        4445.62          69.42
      7119       127.4697        4877.00        4445.57          69.84
      7120       127.4864        4704.00        4446.24          68.59
      7121       127.5031        4605.00        4447.62          67.86
      7122       127.5199        4704.00        4449.92          68.59
      7123       127.5366        4657.00        4453.32          68.24
      7124       127.5533        4701.00        4457.85          68.56
      7125       127.5700        4804.00        4463.71          69.31
      7126       127.5867        4763.00        4470.97          69.01
      7127       127.6034        4875.00        4479.70          69.82
      7128       127.6201        4967.00        4489.98          70.48
      7129       127.6368        4940.00        4501.73          70.29
      7130       127.6535        4765.00        4514.88          69.03
      7131       127.6702        5048.00        4529.28          71.05
      7132       127.6870        4995.00        4544.71          70.68
      7133       127.7037        4857.00        4560.84          69.69
      7134       127.7204        4844.00        4577.51          69.60
      7135       127.7371        5053.00        4593.17          71.08
      7136       127.7538        4918.00        4608.59          70.13
      7137       127.7705        4995.00        4622.56          70.68
      7138       127.7872        4994.00        4634.38          70.67
      7139       127.8039        4970.00        4643.36          70.50
      7140       127.8206        4948.00        4648.97          70.34
      7141       127.8374        4895.00        4650.93          69.96
      7142       127.8541        4830.00        4649.22          69.50
      7143       127.8708        4921.00        4644.56          70.15
      7144       127.8875        4862.00        4636.88          69.73
      7145       127.9042        4885.00        4627.40          69.89
      7146       127.9209        4915.00        4616.84          70.11
      7147       127.9376        4826.00        4606.79          69.47
      7148       127.9543        4722.00        4598.14          68.72
      7149       127.9711        4920.00        4591.84          70.14
      7150       127.9878        4740.00        4588.87          68.85
      7151       128.0045        4795.00        4590.17          69.25
      7152       128.0212        4871.00        4596.74          69.79
      7153       128.0379        4720.00        4608.90          68.70
      7154       128.0546        4794.00        4627.99          69.24
      7155       128.0713        4912.00        4654.38          70.09
      7156       128.0880        4790.00        4688.58          69.21
      7157       128.1047        4880.00        4730.87          69.86
      7158       128.1214        4895.00        4781.38          69.96
      7159       128.1382        5006.00        4840.13          70.75
      7160       128.1549        5054.00        4906.55          71.09
      7161       128.1716        5044.00        4980.09          71.02
      7162       128.1883        5013.00        5059.79          70.80
      7163       128.2050        5180.00        5144.26          71.97
      7164       128.2217        5307.00        5231.97          72.85
      7165       128.2384        5443.00        5320.69          73.78
      7166       128.2552        5604.00        5407.78          74.86
      7167       128.2719        5682.00        5490.40          75.38
      7168       128.2886        5643.00        5565.50          75.12
      7169       128.3053        5707.00        5629.55          75.54
      7170       128.3220        5594.00        5679.48          74.79
      7171       128.3387        5778.00        5713.52          76.01
      7172       128.3554        5760.00        5730.16          75.89
      7173       128.3721        5543.00        5728.86          74.45
      7174       128.3888        5623.00        5711.66          74.99
      7175       128.4055        5479.00        5680.15          74.02
      7176       128.4223        5362.00        5637.07          73.23
      7177       128.4390        5267.00        5585.65          72.57
      7178       128.4557        5253.00        5528.68          72.48
      7179       128.4724        5231.00        5469.58          72.33
      7180       128.4891        5249.00        5411.41          72.45
      7181       128.5058        5031.00        5357.15          70.93
      7182       128.5225        5086.00        5309.85          71.32
      7183       128.5392        5104.00        5271.93          71.44
      7184       128.5559        5272.00        5245.67          72.61
      7185       128.5726        5172.00        5233.02          71.92
      7186       128.5894        5051.00        5235.64          71.07
      7187       128.6061        5197.00        5254.75          72.09
      7188       128.6228        5306.00        5291.33          72.84
      7189       128.6395        5296.00        5345.83          72.77
      7190       128.6562        5379.00        5418.33          73.34
      7191       128.6729        5438.00        5508.47          73.74
      7192       128.6897        5441.00        5615.22          73.76
      7193       128.7064        5641.00        5736.87          75.11
      7194       128.7231        5671.00        5871.33          75.31
      7195       128.7398        5751.00        6015.80          75.84
      7196       128.7565        5882.00        6166.99          76.69
      7197       128.7732        6032.00        6320.66          77.67
      7198       128.7899        6167.00        6472.34          78.53
      7199       128.8066        6283.00        6617.00          79.27
      7200       128.8233        6304.00        6748.87          79.40
      7201       128.8400        6586.00        6862.29          81.15
      7202       128.8568        6477.00        6951.69          80.48
      7203       128.8734        6655.00        7012.52          81.58
      7204       128.8902        6560.00        7040.77          80.99
      7205       128.9069        6433.00        7035.04          80.21
      7206       128.9236        6582.00        6995.86          81.13
      7207       128.9403        6361.00        6925.85          79.76
      7208       128.9570        5976.00        6829.30          77.30
      7209       128.9737        5865.00        6712.26          76.58
      7210       128.9904        5732.00        6580.75          75.71
      7211       129.0071        5581.00        6441.07          74.71
      7212       129.0239        5687.00        6298.88          75.41
      7213       129.0406        5435.00        6159.92          73.72
      7214       129.0573        5421.00        6028.50          73.63
      7215       129.0740        5313.00        5908.32          72.89
      7216       129.0907        5118.00        5802.17          71.54
      7217       129.1074        5359.00        5712.65          73.21
      7218       129.1241        5292.00        5641.04          72.75
      7219       129.1409        5172.00        5588.08          71.92
      7220       129.1576        5249.00        5554.00          72.45
      7221       129.1743        5302.00        5538.22          72.81
      7222       129.1910        5292.00        5539.59          72.75
      7223       129.2077        5481.00        5556.47          74.03
      7224       129.2244        5585.00        5586.65          74.73
      7225       129.2411        5430.00        5627.60          73.69
      7226       129.2578        5373.00        5676.54          73.30
      7227       129.2746        5465.00        5730.55          73.93
      7228       129.2913        5577.00        5786.88          74.68
      7229       129.3080        5586.00        5843.32          74.74
      7230       129.3247        5705.00        5898.19          75.53
      7231       129.3414        5618.00        5950.41          74.95
      7232       129.3581        5705.00        5999.35          75.53
      7233       129.3748        5622.00        6044.64          74.98
      7234       129.3915        5685.00        6085.72          75.40
      7235       129.4082        5873.00        6122.14          76.64
      7236       129.4249        5787.00        6152.32          76.07
      7237       129.4416        5640.00        6175.08          75.10
      7238       129.4584        5830.00        6188.96          76.35
      7239       129.4751        5819.00        6192.29          76.28
      7240       129.4918        5821.00        6183.69          76.30
      7241       129.5085        5727.00        6162.65          75.68
      7242       129.5252        5706.00        6129.21          75.54
      7243       129.5419        5640.00        6084.04          75.10
      7244       129.5586        5624.00        6028.59          74.99
      7245       129.5753        5551.00        5964.63          74.50
      7246       129.5921        5586.00        5894.15          74.74
      7247       129.6088        5397.00        5819.29          73.46
      7248       129.6255        5314.00        5741.75          72.90
      7249       129.6422        5347.00        5662.99          73.12
      7250       129.6589        5312.00        5584.04          72.88
      7251       129.6756        5332.00        5505.62          73.02
      7252       129.6923        5142.00        5428.34          71.71
      7253       129.7090        5017.00        5352.81          70.83
      7254       129.7258        5130.00        5279.56          71.62
      7255       129.7425        5024.00        5209.23          70.88
      7256       129.7592        4976.00        5142.29          70.54
      7257       129.7759        4955.00        5079.11          70.39
      7258       129.7926        4840.00        5019.85          69.57
      7259       129.8093        4824.00        4964.33          69.46
      7260       129.8260        4885.00        4912.43          69.89
      7261       129.8427        4860.00        4863.49          69.71
      7262       129.8594        4849.00        4816.82          69.63
      7263       129.8761        4863.00        4771.79          69.74
      7264       129.8928        4738.00        4727.80          68.83
      7265       129.9095        4624.00        4684.46          68.00
      7266       129.9263        4710.00        4641.69          68.63
      7267       129.9430        4628.00        4599.65          68.03
      7268       129.9597        4686.00        4558.80          68.45
      7269       129.9764        4618.00        4519.67          67.96
      7270       129.9931        4534.00        4482.83          67.33



_exptl_crystal_density_diffrn
8.6623
_refine_ls_goodness_of_fit_all
4.14
_refine_ls_wR_factor_ref
0.0367
_cell_formula_units_Z
2
_exptl_absorpt_process_details
'(Jana2000; Petricek, Dusek & Palatinus, 2000)'
_cell_length_a
3.9183(2)
_cell_length_b
6.7475(4)
_cell_length_c
4.0932(2)
_diffrn_radiation_type
'Cu K\a'
_chemical_formula_weight
564.70
_refine_ls_number_restraints
0
_computing_structure_refinement
'(Jana2000; Petricek and Dusek, 2000)'
_refine_ls_R_factor_gt
0.0594
_refine_ls_number_constraints
1
_space_group_ssg_name
'X2/m(\a0\g)0s'
_exptl_absorpt_correction_type
empirical
_refine_ls_weighting_scheme
sigma
_cell_angle_gamma
90
_cell_measurement_temperature
295
_computing_cell_refinement
'(Jana2000; Petricek and Dusek, 2000)'
_refine_special_details
; Impurity present is Er2O3
Parameters for this were not refined.
;
_computing_publication_material
'(Jana2000; Petricek and Dusek, 2000)'
_refine_ls_shift/su_max
0.0921
_diffrn_radiation_monochromator
none
_cell_volume
108.217(13)
_refine_ls_structure_factor_coef
F^2^
_exptl_crystal_F_000
476
_symmetry_cell_setting
monoclinic
_diffrn_ambient_temperature
295
_exptl_absorpt_coefficient_mu
91.825
_refine_ls_R_factor_all
0.0621
_cell_modulation_dimension
1
_refine_ls_wR_factor_gt
0.0366
_diffrn_radiation_wavelength
1.54178
_refine_ls_shift/su_mean
0.0150
_refine_ls_extinction_method
'none'
_diffrn_measurement_device_type
"PANalytical X'pert PRO"
_cell_angle_alpha
90
_refine_ls_number_parameters
41
_chemical_formula_sum
'Er2 Ge3.171'
_cell_angle_beta
89.813(4)
loop_
_space_group_symop_ssg_id
_space_group_symop_ssg_operation_algebraic
1 x1,x2,x3,x4
2 -x1,x2,-x3,1/2-x4
3 -x1,-x2,-x3,-x4
4 x1,-x2,x3,1/2+x4
5 1/2+x1,1/2+x2,x3,1/2+x4
6 1/2-x1,1/2+x2,-x3,-x4
7 1/2-x1,1/2-x2,-x3,1/2-x4
8 1/2+x1,1/2-x2,x3,x4

loop_
_cell_wave_vector_seq_id
_cell_wave_vector_x
_cell_wave_vector_y
_cell_wave_vector_z
1 0.41484(17) 0.00000 0.2236(2)

loop_
_atom_type_symbol
_atom_type_scat_dispersion_real
_atom_type_scat_dispersion_imag
_atom_type_scat_source
Er -9.437 3.938 
;International Tables Vol C Tables  4.2.6.8 and 6.1.1.1
;
Ge -1.089 0.886 
;International Tables Vol C Tables  4.2.6.8 and 6.1.1.1
;

loop_
_atom_site_type_symbol
_atom_site_label
_atom_site_fract_x
_atom_site_fract_y
_atom_site_fract_z
_atom_site_u_iso_or_equiv
_atom_site_adp_type
_atom_site_calc_flag
_atom_site_refinement_flags
_atom_site_occupancy
_atom_site_disorder_assembly
_atom_site_disorder_group
Ge Ge 0.5 0.178(3) 0.5 0.016(2) Uiso d . 1 . .
Er Er 0 0 0 0.0098(13) Uiso d . 1 . .

loop_
_atom_site_fourier_wave_vector_seq_id
_atom_site_fourier_wave_vector_x
_atom_site_fourier_wave_vector_z
1 0.41484 0.22361
2 0.82967 0.44721

loop_
_atom_site_displace_fourier_atom_site_label
_atom_site_displace_fourier_axis
_atom_site_displace_fourier_wave_vector_seq_id
_atom_site_displace_fourier_param_cos
_atom_site_displace_fourier_param_sin
Ge x 1 -0.082(3) 0
Ge y 1 0 -0.048(6)
Ge z 1 -0.009(4) 0
Ge x 2 0 0.043(6)
Ge y 2 0.015(6) 0
Ge z 2 0 -0.007(6)
Er x 1 0 0
Er y 1 0 0.0221(12)
Er z 1 0 0
Er x 2 0 -0.013(3)
Er y 2 0 0
Er z 2 0 0.019(3)

loop_
_atom_site_occ_special_func_atom_site_label
_atom_site_occ_special_func_crenel_c
_atom_site_occ_special_func_crenel_w
Ge 0.25 0.7926

loop_
_geom_bond_atom_site_label_1
_geom_bond_atom_site_label_2
_geom_bond_site_symmetry_1
_geom_bond_site_symmetry_2
_geom_bond_publ_flag
_geom_bond_distance_max
_geom_bond_distance_min
_geom_bond_distance_av
Ge Ge . 3_656 yes 2.70(5) 2.42(4) 2.59(4)
Ge Ge . 7_556 yes 2.62(3) 2.33(3) 2.55(3)
Ge Ge . 7_656 yes 2.62(3) 2.29(3) 2.55(3)
Ge Er . . yes 3.41(2) 2.94(2) 3.08(2)
Ge Er . 1_556 yes 3.50(2) 2.90(2) 3.05(2)
Ge Er . 1_655 yes 3.50(2) 2.90(2) 3.05(2)
Ge Er . 1_656 yes 3.41(2) 2.94(2) 3.08(2)
Ge Er . 5_555 yes 3.17(5) 2.83(3) 3.03(3)
Ge Er . 5_556 yes 3.17(5) 2.83(3) 3.03(3)



# powder data simulated using PLATON:

data_V_simulated_1.54178

_publcif_pd_cifplot 'simulated 2021-03-25'

