data_profile1

_pd_block_id      Mg2Si_100K_LT


loop_
 _pd_proc_point_id
 _pd_proc_2theta_corrected
 _pd_proc_intensity_net
 _pd_calc_intensity_net
 _pd_proc_ls_weight              
       1    7.00    1710  1670.8     41.35
       2    7.01    1724  1671.8     41.52
       3    7.02    1724  1672.9     41.52
       4    7.03    1718  1673.9     41.45
       5    7.04    1709  1674.9     41.34
       6    7.05    1698  1675.9     41.21
       7    7.06    1693  1676.9     41.15
       8    7.07    1711  1677.9     41.36
       9    7.08    1694  1678.9     41.16
      10    7.09    1695  1679.8     41.17
      11    7.10    1691  1680.8     41.12
      12    7.11    1706  1681.8     41.30
      13    7.12    1686  1682.8     41.06
      14    7.13    1661  1683.7     40.76
      15    7.14    1698  1684.7     41.21
      16    7.15    1686  1685.7     41.06
      17    7.16    1681  1686.7     41.00
      18    7.17    1708  1687.7     41.33
      19    7.18    1691  1688.7     41.12
      20    7.19    1691  1689.7     41.12
      21    7.20    1716  1690.8     41.42
      22    7.21    1696  1691.8     41.18
      23    7.22    1672  1692.9     40.89
      24    7.23    1677    1694     40.95
      25    7.24    1708  1695.1     41.33
      26    7.25    1709  1696.2     41.34
      27    7.26    1714  1697.4     41.40
      28    7.27    1712  1698.6     41.38
      29    7.28    1705  1699.9     41.29
      30    7.29    1715  1701.2     41.41
      31    7.30    1694  1702.5     41.16
      32    7.31    1699  1703.9     41.22
      33    7.32    1705  1705.4     41.29
      34    7.33    1668  1706.9     40.84
      35    7.34    1672  1708.5     40.89
      36    7.35    1690  1710.2     41.11
      37    7.36    1703    1712     41.27
      38    7.37    1689  1714.8     41.10
      39    7.38    1688  1716.8     41.09
      40    7.39    1708    1719     41.33
      41    7.40    1695  1721.2     41.17
      42    7.41    1715  1723.7     41.41
      43    7.42    1712  1726.3     41.38
      44    7.43    1709    1729     41.34
      45    7.44    1722    1732     41.50
      46    7.45    1718  1735.3     41.45
      47    7.46    1718  1738.8     41.45
      48    7.47    1743  1742.6     41.75
      49    7.48    1727  1746.7     41.56
      50    7.49    1720  1751.2     41.47
      51    7.50    1733  1756.2     41.63
      52    7.51    1739  1761.6     41.70
      53    7.52    1747  1767.6     41.80
      54    7.53    1749  1774.2     41.82
      55    7.54    1735  1781.6     41.65
      56    7.55    1725  1789.7     41.53
      57    7.56    1757  1798.9     41.92
      58    7.57    1773  1809.2     42.11
      59    7.58    1757  1820.7     41.92
      60    7.59    1797  1833.9     42.39
      61    7.60    1783  1848.8     42.23
      62    7.61    1783  1865.9     42.23
      63    7.62    1825  1885.6     42.72
      64    7.63    1848  1908.5     42.99
      65    7.64    1836  1935.3     42.85
      66    7.65    1894  1966.8     43.52
      67    7.66    1904  2004.2     43.63
      68    7.67    1937  2049.1     44.01
      69    7.68    1988  2103.7     44.59
      70    7.69    2032  2170.8     45.08
      71    7.70    2094  2254.5     45.76
      72    7.71    2217  2360.6     47.09
      73    7.72    2339  2497.8     48.36
      74    7.73    2486  2679.4     49.86
      75    7.74    2777  2926.5     52.70
      76    7.75    3162  3276.9     56.23
      77    7.76    3780  3808.2     61.48
      78    7.77    4929  4698.4     70.21
      79    7.78    6945  6335.4     83.34
      80    7.79   10705  9413.6    103.46
      81    7.80   17269 14853.7    131.41
      82    7.81   25729 23113.1    160.40
      83    7.82   31266 30548.4    176.82
      84    7.83   28046 27264.7    167.47
      85    7.84   19228 17402.1    138.67
      86    7.85   11661 10365.7    107.99
      87    7.86    7242  6544.4     85.10
      88    7.87    4920  4655.6     70.14
      89    7.88    3706  3699.8     60.88
      90    7.89    3079  3154.9     55.49
      91    7.90    2646  2805.2     51.44
      92    7.91    2381  2563.7     48.80
      93    7.92    2199  2389.6     46.89
      94    7.93    2116  2259.9     46.00
      95    7.94    2037  2160.8     45.13
      96    7.95    1958  2083.3     44.25
      97    7.96    1904  2021.6     43.63
      98    7.97    1836  1971.6     42.85
      99    7.98    1834  1930.6     42.83
     100    7.99    1787  1896.4     42.27
     101    8.00    1759  1867.6     41.94
     102    8.01    1765    1843     42.01
     103    8.02    1722    1822     41.50
     104    8.03    1711  1803.7     41.36
     105    8.04    1723  1787.8     41.51
     106    8.05    1721  1773.8     41.48
     107    8.06    1697  1761.3     41.19
     108    8.07    1704  1750.2     41.28
     109    8.08    1700  1740.3     41.23
     110    8.09    1671  1731.3     40.88
     111    8.10    1677  1723.2     40.95
     112    8.11    1691  1715.8     41.12
     113    8.12    1659    1709     40.73
     114    8.13    1656  1702.8     40.69
     115    8.14    1636    1697     40.45
     116    8.15    1645  1691.7     40.56
     117    8.16    1663  1686.7     40.78
     118    8.17    1646  1682.1     40.57
     119    8.18    1658  1677.7     40.72
     120    8.19    1670  1673.7     40.87
     121    8.20    1643  1669.8     40.53
     122    8.21    1652  1666.2     40.64
     123    8.22    1657  1662.7     40.71
     124    8.23    1648  1659.4     40.60
     125    8.24    1651  1656.3     40.63
     126    8.25    1651  1653.3     40.63
     127    8.26    1650  1650.4     40.62
     128    8.27    1646  1647.7     40.57
     129    8.28    1650    1645     40.62
     130    8.29    1624  1642.5     40.30
     131    8.30    1617    1640     40.21
     132    8.31    1643  1637.7     40.53
     133    8.32    1630  1635.4     40.37
     134    8.33    1632  1633.1     40.40
     135    8.34    1636    1631     40.45
     136    8.35    1632  1628.9     40.40
     137    8.36    1603  1626.9     40.04
     138    8.37    1622  1624.9     40.27
     139    8.38    1615    1623     40.19
     140    8.39    1621  1621.1     40.26
     141    8.40    1603  1619.3     40.04
     142    8.41    1596  1617.6     39.95
     143    8.42    1605  1615.9     40.06
     144    8.43    1613  1614.4     40.16
     145    8.44    1606  1612.8     40.07
     146    8.45    1591  1611.4     39.89
     147    8.46    1608  1610.1     40.10
     148    8.47    1614    1609     40.17
     149    8.48    1616  1608.1     40.20
     150    8.49    1622  1607.4     40.27
     151    8.50    1622  1607.3     40.27
     152    8.51    1618  1607.9     40.22
     153    8.52    1616  1609.9     40.20
     154    8.53    1630  1614.3     40.37
     155    8.54    1630  1623.3     40.37
     156    8.55    1663  1640.7     40.78
     157    8.56    1681  1667.5     41.00
     158    8.57    1698    1684     41.21
     159    8.58    1673  1665.1     40.90
     160    8.59    1670  1635.7     40.87
     161    8.60    1641  1615.8     40.51
     162    8.61    1626  1604.4     40.32
     163    8.62    1621  1597.5     40.26
     164    8.63    1618  1593.2     40.22
     165    8.64    1615  1590.1     40.19
     166    8.65    1610  1587.9     40.12
     167    8.66    1582  1586.2     39.77
     168    8.67    1593  1584.9     39.91
     169    8.68    1600  1583.9     40.00
     170    8.69    1574    1583     39.67
     171    8.70    1586  1582.4     39.82
     172    8.71    1596    1582     39.95
     173    8.72    1577  1581.8     39.71
     174    8.73    1589  1581.7     39.86
     175    8.74    1604  1581.9     40.05
     176    8.75    1600  1582.3     40.00
     177    8.76    1594    1583     39.92
     178    8.77    1602  1584.9     40.02
     179    8.78    1582  1586.3     39.77
     180    8.79    1601    1588     40.01
     181    8.80    1595  1590.2     39.94
     182    8.81    1600  1592.9     40.00
     183    8.82    1602  1596.3     40.02
     184    8.83    1612  1600.4     40.15
     185    8.84    1608  1605.4     40.10
     186    8.85    1617  1611.5     40.21
     187    8.86    1621    1619     40.26
     188    8.87    1614  1628.2     40.17
     189    8.88    1632  1639.4     40.40
     190    8.89    1648  1653.3     40.60
     191    8.90    1650  1670.7     40.62
     192    8.91    1682  1692.6     41.01
     193    8.92    1687  1720.6     41.07
     194    8.93    1713  1756.9     41.39
     195    8.94    1756    1805     41.90
     196    8.95    1834  1870.2     42.83
     197    8.96    1909  1961.8     43.69
     198    8.97    2086  2098.3     45.67
     199    8.98    2322  2320.4     48.19
     200    8.99    2702  2717.5     51.98
     201    9.00    3499  3454.9     59.15
     202    9.01    4786  4767.7     69.18
     203    9.02    6847  6853.5     82.75
     204    9.03    8925  9257.1     94.47
     205    9.04    8921  9614.7     94.45
     206    9.05    7014  7124.2     83.75
     207    9.06    4858    4775     69.70
     208    9.07    3453  3364.8     58.76
     209    9.08    2651  2634.5     51.49
     210    9.09    2305  2291.4     48.01
     211    9.10    2155  2165.5     46.42
     212    9.11    2178  2189.4     46.67
     213    9.12    2339  2312.1     48.36
     214    9.13    2471  2416.7     49.71
     215    9.14    2317  2340.6     48.14
     216    9.15    2080  2112.2     45.61
     217    9.16    1863  1885.8     43.16
     218    9.17    1740  1732.7     41.71
     219    9.18    1639    1649     40.48
     220    9.19    1604  1605.9     40.05
     221    9.20    1592  1580.6     39.90
     222    9.21    1561  1562.9     39.51
     223    9.22    1555  1548.9     39.43
     224    9.23    1534  1537.4     39.17
     225    9.24    1531  1527.6     39.13
     226    9.25    1503  1519.1     38.77
     227    9.26    1494  1511.6     38.65
     228    9.27    1536    1505     39.19
     229    9.28    1522    1499     39.01
     230    9.29    1531  1493.6     39.13
     231    9.30    1511  1488.6     38.87
     232    9.31    1507  1483.9     38.82
     233    9.32    1502  1479.6     38.76
     234    9.33    1530  1475.6     39.12
     235    9.34    1509  1471.8     38.85
     236    9.35    1493  1468.2     38.64
     237    9.36    1486  1464.8     38.55
     238    9.37    1488  1461.5     38.57
     239    9.38    1489  1458.3     38.59
     240    9.39    1495  1455.3     38.67
     241    9.40    1477  1452.4     38.43
     242    9.41    1504  1449.5     38.78
     243    9.42    1478  1446.8     38.44
     244    9.43    1471  1444.1     38.35
     245    9.44    1470  1441.5     38.34
     246    9.45    1498  1438.9     38.70
     247    9.46    1470  1436.4     38.34
     248    9.47    1465    1434     38.28
     249    9.48    1482  1431.5     38.50
     250    9.49    1482  1429.2     38.50
     251    9.50    1480  1425.8     38.47
     252    9.51    1475  1423.6     38.41
     253    9.52    1466  1421.4     38.29
     254    9.53    1448  1419.2     38.05
     255    9.54    1445    1417     38.01
     256    9.55    1457  1414.8     38.17
     257    9.56    1451  1412.7     38.09
     258    9.57    1482  1410.5     38.50
     259    9.58    1457  1408.4     38.17
     260    9.59    1455  1406.3     38.14
     261    9.60    1464  1404.3     38.26
     262    9.61    1455  1402.2     38.14
     263    9.62    1452  1400.1     38.11
     264    9.63    1463  1398.1     38.25
     265    9.64    1449  1396.1     38.07
     266    9.65    1447    1394     38.04
     267    9.66    1454    1392     38.13
     268    9.67    1451    1390     38.09
     269    9.68    1424    1388     37.74
     270    9.69    1457    1386     38.17
     271    9.70    1444  1384.1     38.00
     272    9.71    1442  1382.1     37.97
     273    9.72    1426  1380.1     37.76
     274    9.73    1439  1378.1     37.93
     275    9.74    1421  1376.2     37.70
     276    9.75    1439  1374.2     37.93
     277    9.76    1418  1372.3     37.66
     278    9.77    1417  1370.4     37.64
     279    9.78    1412  1368.4     37.58
     280    9.79    1430  1366.5     37.82
     281    9.80    1416  1364.6     37.63
     282    9.81    1436  1362.6     37.89
     283    9.82    1450  1360.7     38.08
     284    9.83    1435    1357     37.88
     285    9.84    1422  1355.1     37.71
     286    9.85    1411  1353.2     37.56
     287    9.86    1407  1351.3     37.51
     288    9.87    1420  1349.4     37.68
     289    9.88    1403  1347.6     37.46
     290    9.89    1405  1345.7     37.48
     291    9.90    1405  1343.8     37.48
     292    9.91    1420  1341.9     37.68
     293    9.92    1409  1340.1     37.54
     294    9.93    1407  1338.2     37.51
     295    9.94    1394  1336.3     37.34
     296    9.95    1408  1334.5     37.52
     297    9.96    1400  1332.6     37.42
     298    9.97    1386  1330.7     37.23
     299    9.98    1369  1328.9     37.00
     300    9.99    1396    1327     37.36
     301   10.00    1398  1325.2     37.39
     302   10.01    1375  1323.3     37.08
     303   10.02    1381  1321.5     37.16
     304   10.03    1396  1319.6     37.36
     305   10.04    1345  1317.8     36.67
     306   10.05    1395  1315.9     37.35
     307   10.06    1385  1314.1     37.22
     308   10.07    1367  1312.3     36.97
     309   10.08    1372  1310.4     37.04
     310   10.09    1375  1308.6     37.08
     311   10.10    1374  1306.8     37.07
     312   10.11    1363  1304.9     36.92
     313   10.12    1363  1303.1     36.92
     314   10.13    1361  1301.3     36.89
     315   10.14    1362  1299.5     36.91
     316   10.15    1352  1297.6     36.77
     317   10.16    1343  1295.8     36.65
     318   10.17    1348    1294     36.72
     319   10.18    1358  1292.2     36.85
     320   10.19    1351  1290.4     36.76
     321   10.20    1347  1288.5     36.70
     322   10.21    1320  1286.7     36.33
     323   10.22    1323  1284.9     36.37
     324   10.23    1343  1283.1     36.65
     325   10.24    1342  1281.3     36.63
     326   10.25    1329  1279.5     36.46
     327   10.26    1340  1277.7     36.61
     328   10.27    1331  1275.9     36.48
     329   10.28    1324  1274.1     36.39
     330   10.29    1328  1272.3     36.44
     331   10.30    1323  1270.5     36.37
     332   10.31    1306  1268.7     36.14
     333   10.32    1320  1266.9     36.33
     334   10.33    1307  1265.1     36.15
     335   10.34    1299  1263.4     36.04
     336   10.35    1319  1261.6     36.32
     337   10.36    1323  1259.8     36.37
     338   10.37    1294    1258     35.97
     339   10.38    1298  1256.2     36.03
     340   10.39    1298  1254.4     36.03
     341   10.40    1298  1252.7     36.03
     342   10.41    1306  1250.9     36.14
     343   10.42    1297  1249.1     36.01
     344   10.43    1286  1247.4     35.86
     345   10.44    1281  1245.6     35.79
     346   10.45    1278  1243.8     35.75
     347   10.46    1283  1242.1     35.82
     348   10.47    1312  1240.3     36.22
     349   10.48    1284  1238.5     35.83
     350   10.49    1282  1236.8     35.81
     351   10.50    1284    1235     35.83
     352   10.51    1277  1233.3     35.74
     353   10.52    1269  1231.5     35.62
     354   10.53    1258  1229.8     35.47
     355   10.54    1271    1228     35.65
     356   10.55    1267  1225.3     35.59
     357   10.56    1268  1223.6     35.61
     358   10.57    1260  1221.8     35.50
     359   10.58    1257  1220.1     35.45
     360   10.59    1276  1218.4     35.72
     361   10.60    1249  1216.7     35.34
     362   10.61    1227    1215     35.03
     363   10.62    1258  1213.2     35.47
     364   10.63    1233  1211.5     35.11
     365   10.64    1243  1209.8     35.26
     366   10.65    1259  1208.1     35.48
     367   10.66    1247  1206.4     35.31
     368   10.67    1248  1204.7     35.33
     369   10.68    1239    1203     35.20
     370   10.69    1258  1201.3     35.47
     371   10.70    1233  1199.6     35.11
     372   10.71    1251  1197.9     35.37
     373   10.72    1244  1196.2     35.27
     374   10.73    1244  1194.5     35.27
     375   10.74    1216  1192.8     34.87
     376   10.75    1235  1191.1     35.14
     377   10.76    1232  1189.4     35.10
     378   10.77    1232  1187.8     35.10
     379   10.78    1227  1186.1     35.03
     380   10.79    1219  1184.4     34.91
     381   10.80    1209  1190.4     34.77
     382   10.81    1198  1188.8     34.61
     383   10.82    1193  1187.2     34.54
     384   10.83    1214  1185.6     34.84
     385   10.84    1206    1184     34.73
     386   10.85    1228  1182.4     35.04
     387   10.86    1216  1180.8     34.87
     388   10.87    1188  1179.3     34.47
     389   10.88    1199  1177.7     34.63
     390   10.89    1212  1176.1     34.81
     391   10.90    1218  1174.6     34.90
     392   10.91    1204    1173     34.70
     393   10.92    1201  1171.4     34.66
     394   10.93    1192  1169.9     34.53
     395   10.94    1201  1168.3     34.66
     396   10.95    1206  1166.8     34.73
     397   10.96    1198  1165.3     34.61
     398   10.97    1186  1163.7     34.44
     399   10.98    1178  1162.2     34.32
     400   10.99    1167  1160.7     34.16
     401   11.00    1165  1159.1     34.13
     402   11.01    1184  1157.6     34.41
     403   11.02    1171  1156.1     34.22
     404   11.03    1164  1154.6     34.12
     405   11.04    1181  1153.1     34.37
     406   11.05    1167  1151.6     34.16
     407   11.06    1174  1150.1     34.26
     408   11.07    1173  1148.6     34.25
     409   11.08    1143  1147.1     33.81
     410   11.09    1163  1145.7     34.10
     411   11.10    1167  1144.2     34.16
     412   11.11    1152  1142.7     33.94
     413   11.12    1142  1141.3     33.79
     414   11.13    1138  1139.8     33.73
     415   11.14    1145  1138.4     33.84
     416   11.15    1142  1136.9     33.79
     417   11.16    1159  1135.5     34.04
     418   11.17    1158    1134     34.03
     419   11.18    1148  1132.6     33.88
     420   11.19    1129  1131.2     33.60
     421   11.20    1120  1129.7     33.47
     422   11.21    1124  1128.3     33.53
     423   11.22    1144  1126.9     33.82
     424   11.23    1148  1125.5     33.88
     425   11.24    1127  1124.1     33.57
     426   11.25    1158  1122.7     34.03
     427   11.26    1156  1121.4     34.00
     428   11.27    1149    1120     33.90
     429   11.28    1157  1118.6     34.01
     430   11.29    1165  1117.2     34.13
     431   11.30    1139  1115.9     33.75
     432   11.31    1147  1114.5     33.87
     433   11.32    1146  1113.2     33.85
     434   11.33    1132  1111.8     33.65
     435   11.34    1123  1110.5     33.51
     436   11.35    1112  1109.2     33.35
     437   11.36    1109  1107.9     33.30
     438   11.37    1120  1106.6     33.47
     439   11.38    1107  1105.3     33.27
     440   11.39    1104    1104     33.23
     441   11.40    1102  1102.7     33.20
     442   11.41    1109  1101.4     33.30
     443   11.42    1099  1100.1     33.15
     444   11.43    1096  1098.9     33.11
     445   11.44    1092  1097.6     33.05
     446   11.45    1091  1096.4     33.03
     447   11.46    1081  1095.1     32.88
     448   11.47    1084  1093.9     32.92
     449   11.48    1070  1092.7     32.71
     450   11.49    1067  1091.5     32.66
     451   11.50    1078  1090.3     32.83
     452   11.51    1077  1089.1     32.82
     453   11.52    1072  1087.9     32.74
     454   11.53    1051  1086.8     32.42
     455   11.54    1037  1085.6     32.20
     456   11.55    1049  1084.5     32.39
     457   11.56    1044  1083.3     32.31
     458   11.57    1059  1082.2     32.54
     459   11.58    1070  1081.1     32.71
     460   11.59    1060    1080     32.56
     461   11.60    1067  1078.9     32.66
     462   11.61    1073  1077.8     32.76
     463   11.62    1075  1076.7     32.79
     464   11.63    1078  1075.7     32.83
     465   11.64    1066  1074.6     32.65
     466   11.65    1053  1073.6     32.45
     467   11.66    1051  1072.6     32.42
     468   11.67    1055  1071.6     32.48
     469   11.68    1045  1070.6     32.33
     470   11.69    1044  1069.7     32.31
     471   11.70    1056  1068.7     32.50
     472   11.71    1031  1067.8     32.11
     473   11.72    1039  1066.9     32.23
     474   11.73    1050  1065.9     32.40
     475   11.74    1046  1065.1     32.34
     476   11.75    1050  1064.2     32.40
     477   11.76    1026  1063.3     32.03
     478   11.77    1032  1063.5     32.12
     479   11.78    1040  1062.8     32.25
     480   11.79    1050    1062     32.40
     481   11.80    1050  1061.3     32.40
     482   11.81    1037  1060.6     32.20
     483   11.82    1025  1059.9     32.02
     484   11.83    1044  1059.3     32.31
     485   11.84    1038  1058.7     32.22
     486   11.85    1035  1058.1     32.17
     487   11.86    1032  1057.5     32.12
     488   11.87    1022    1057     31.97
     489   11.88    1018  1056.5     31.91
     490   11.89    1047    1056     32.36
     491   11.90    1024  1055.6     32.00
     492   11.91    1040  1055.2     32.25
     493   11.92    1015  1054.9     31.86
     494   11.93    1021  1054.6     31.95
     495   11.94    1005  1054.3     31.70
     496   11.95    1021  1054.1     31.95
     497   11.96    1005    1054     31.70
     498   11.97    1027  1053.9     32.05
     499   11.98    1022  1053.8     31.97
     500   11.99    1029  1053.8     32.08
     501   12.00    1023  1053.9     31.98
     502   12.01    1000    1054     31.62
     503   12.02    1009  1054.3     31.76
     504   12.03    1018  1054.6     31.91
     505   12.04    1010    1055     31.78
     506   12.05    1027  1055.4     32.05
     507   12.06    1017    1056     31.89
     508   12.07    1017  1056.7     31.89
     509   12.08    1021  1057.6     31.95
     510   12.09    1009  1058.5     31.76
     511   12.10    1015  1059.7     31.86
     512   12.11    1010    1061     31.78
     513   12.12    1021  1062.5     31.95
     514   12.13    1019  1064.2     31.92
     515   12.14    1020  1066.3     31.94
     516   12.15    1030  1068.6     32.09
     517   12.16    1026  1071.4     32.03
     518   12.17    1034  1074.6     32.16
     519   12.18    1056  1078.5     32.50
     520   12.19    1052  1083.2     32.43
     521   12.20    1065  1089.3     32.63
     522   12.21    1067  1097.6     32.66
     523   12.22    1088  1110.4     32.98
     524   12.23    1105  1131.5     33.24
     525   12.24    1140  1167.7     33.76
     526   12.25    1203  1227.3     34.68
     527   12.26    1278  1317.5     35.75
     528   12.27    1425  1438.6     37.75
     529   12.28    1567  1577.3     39.59
     530   12.29    1737  1701.1     41.68
     531   12.30    1817  1759.8     42.63
     532   12.31    1736    1722     41.67
     533   12.32    1575  1612.1     39.69
     534   12.33    1443  1480.8     37.99
     535   12.34    1338  1363.8     36.58
     536   12.35    1229    1277     35.06
     537   12.36    1192  1221.7     34.53
     538   12.37    1151  1191.3     33.93
     539   12.38    1138  1177.5     33.73
     540   12.39    1133  1173.3     33.66
     541   12.40    1120  1174.5     33.47
     542   12.41    1112  1178.8     33.35
     543   12.42    1120  1185.2     33.47
     544   12.43    1120  1193.3     33.47
     545   12.44    1129  1202.9     33.60
     546   12.45    1130  1214.1     33.62
     547   12.46    1129  1226.8     33.60
     548   12.47    1141  1241.3     33.78
     549   12.48    1151  1257.5     33.93
     550   12.49    1169  1275.6     34.19
     551   12.50    1168    1296     34.18
     552   12.51    1209  1318.9     34.77
     553   12.52    1209  1344.5     34.77
     554   12.53    1233  1373.4     35.11
     555   12.54    1262  1405.9     35.52
     556   12.55    1309  1442.7     36.18
     557   12.56    1340  1484.4     36.61
     558   12.57    1397    1532     37.38
     559   12.58    1435  1586.6     37.88
     560   12.59    1497  1649.4     38.69
     561   12.60    1590  1722.2     39.87
     562   12.61    1650  1807.1     40.62
     563   12.62    1721    1907     41.48
     564   12.63    1847  2025.3     42.98
     565   12.64    1971  2166.9     44.40
     566   12.65    2161  2338.1     46.49
     567   12.66    2362  2547.7     48.60
     568   12.67    2593  2807.8     50.92
     569   12.68    2939  3135.6     54.21
     570   12.69    3377  3556.4     58.11
     571   12.70    3937  4108.8     62.75
     572   12.71    4728  4855.8     68.76
     573   12.72    5845  5913.3     76.45
     574   12.73    7480  7519.9     86.49
     575   12.74   10098 10178.9    100.49
     576   12.75   14690 14848.2    121.20
     577   12.76   22389 23030.9    149.63
     578   12.77   35987   36527    189.70
     579   12.78   56305 56137.4    237.29
     580   12.79   73582 75556.4    271.26
     581   12.80   72378 75330.5    269.03
     582   12.81   54417 54187.1    233.27
     583   12.82   34593 33898.6    185.99
     584   12.83   20908 20683.9    144.60
     585   12.84   13174 13102.4    114.78
     586   12.85    9079  8978.8     95.28
     587   12.86    6670  6683.1     81.67
     588   12.87    5262  5289.2     72.54
     589   12.88    4259  4359.7     65.26
     590   12.89    3536  3698.2     59.46
     591   12.90    3031  3208.3     55.05
     592   12.91    2658  2835.1     51.56
     593   12.92    2346  2544.5     48.44
     594   12.93    2108  2313.9     45.91
     595   12.94    1902  2127.9     43.61
     596   12.95    1762  1975.7     41.98
     597   12.96    1641  1849.6     40.51
     598   12.97    1542  1743.9     39.27
     599   12.98    1449  1654.5     38.07
     600   12.99    1390  1578.2     37.28
     601   13.00    1345  1512.4     36.67
     602   13.01    1290  1455.4     35.92
     603   13.02    1250  1406.9     35.36
     604   13.03    1199  1363.2     34.63
     605   13.04    1173  1324.6     34.25
     606   13.05    1142  1290.3     33.79
     607   13.06    1131  1259.6     33.63
     608   13.07    1089  1232.2     33.00
     609   13.08    1095  1207.4     33.09
     610   13.09    1051    1185     32.42
     611   13.10    1049  1164.7     32.39
     612   13.11    1037  1146.3     32.20
     613   13.12    1029  1129.4     32.08
     614   13.13    1018  1113.9     31.91
     615   13.14    1013  1099.6     31.83
     616   13.15    1005  1086.5     31.70
     617   13.16     999  1074.4     31.61
     618   13.17    1014  1063.1     31.84
     619   13.18    1001  1052.6     31.64
     620   13.19     986  1042.9     31.40
     621   13.20     972  1033.8     31.18
     622   13.21     975  1025.3     31.22
     623   13.22     976  1017.4     31.24
     624   13.23     984  1009.9     31.37
     625   13.24     965  1002.9     31.06
     626   13.25     958   996.3     30.95
     627   13.26     979     990     31.29
     628   13.27     948   984.1     30.79
     629   13.28     942   978.5     30.69
     630   13.29     945   973.2     30.74
     631   13.30     936   968.1     30.59
     632   13.31     933   963.3     30.55
     633   13.32     934   958.8     30.56
     634   13.33     933   954.4     30.55
     635   13.34     934   950.2     30.56
     636   13.35     947   946.3     30.77
     637   13.36     919   942.4     30.32
     638   13.37     899   938.8     29.98
     639   13.38     916   935.3     30.27
     640   13.39     901   931.9     30.02
     641   13.40     903   928.7     30.05
     642   13.41     911   925.6     30.18
     643   13.42     920   922.6     30.33
     644   13.43     919   919.7     30.32
     645   13.44     905   916.9     30.08
     646   13.45     901   914.2     30.02
     647   13.46     904   911.6     30.07
     648   13.47     907   909.1     30.12
     649   13.48     891   906.6     29.85
     650   13.49     907   904.3     30.12
     651   13.50     924     902     30.40
     652   13.51     912   899.7     30.20
     653   13.52     903   897.6     30.05
     654   13.53     907   895.5     30.12
     655   13.54     905   893.4     30.08
     656   13.55     907   891.4     30.12
     657   13.56     899   889.5     29.98
     658   13.57     881   887.6     29.68
     659   13.58     879   885.8     29.65
     660   13.59     898     884     29.97
     661   13.60     895   882.2     29.92
     662   13.61     882   880.5     29.70
     663   13.62     895   878.9     29.92
     664   13.63     886   877.2     29.77
     665   13.64     874   875.6     29.56
     666   13.65     886   874.1     29.77
     667   13.66     895   872.5     29.92
     668   13.67     869   871.1     29.48
     669   13.68     877   869.6     29.61
     670   13.69     882   868.2     29.70
     671   13.70     879   866.8     29.65
     672   13.71     886   865.4     29.77
     673   13.72     878     864     29.63
     674   13.73     880   862.7     29.66
     675   13.74     895   861.4     29.92
     676   13.75     879   860.1     29.65
     677   13.76     861   858.9     29.34
     678   13.77     889   857.7     29.82
     679   13.78     871   856.5     29.51
     680   13.79     860   855.3     29.33
     681   13.80     869   854.1     29.48
     682   13.81     872     853     29.53
     683   13.82     870   851.8     29.50
     684   13.83     886   850.7     29.77
     685   13.84     871   850.7     29.51
     686   13.85     865   849.6     29.41
     687   13.86     868   848.6     29.46
     688   13.87     871   847.7     29.51
     689   13.88     864   846.7     29.39
     690   13.89     871   845.8     29.51
     691   13.90     857   844.9     29.27
     692   13.91     849     844     29.14
     693   13.92     868   843.2     29.46
     694   13.93     858   842.4     29.29
     695   13.94     871   841.6     29.51
     696   13.95     863   840.8     29.38
     697   13.96     852     840     29.19
     698   13.97     860   839.3     29.33
     699   13.98     850   838.7     29.15
     700   13.99     851     838     29.17
     701   14.00     852   837.5     29.19
     702   14.01     856   836.9     29.26
     703   14.02     850   836.5     29.15
     704   14.03     838   836.1     28.95
     705   14.04     838   835.7     28.95
     706   14.05     834   835.5     28.88
     707   14.06     833   835.4     28.86
     708   14.07     849   835.4     29.14
     709   14.08     850   835.7     29.15
     710   14.09     860   836.1     29.33
     711   14.10     873   836.9     29.55
     712   14.11     878   838.2     29.63
     713   14.12     884   840.4     29.73
     714   14.13     885   844.4     29.75
     715   14.14     896   851.7     29.93
     716   14.15     898   865.2     29.97
     717   14.16     916     889     30.27
     718   14.17     946     927     30.76
     719   14.18    1004   980.8     31.69
     720   14.19    1068    1046     32.68
     721   14.20    1124  1109.9     33.53
     722   14.21    1148  1149.1     33.88
     723   14.22    1144  1142.4     33.82
     724   14.23    1100  1093.5     33.17
     725   14.24    1013  1026.4     31.83
     726   14.25     954   962.1     30.89
     727   14.26     917     911     30.28
     728   14.27     882   875.6     29.70
     729   14.28     869   853.7     29.48
     730   14.29     845   840.9     29.07
     731   14.30     826   833.6     28.74
     732   14.31     841   829.1     29.00
     733   14.32     836   826.1     28.91
     734   14.33     831   823.8     28.83
     735   14.34     833     822     28.86
     736   14.35     838   820.6     28.95
     737   14.36     815   819.3     28.55
     738   14.37     819   818.3     28.62
     739   14.38     822   817.3     28.67
     740   14.39     819   816.6     28.62
     741   14.40     828   815.9     28.77
     742   14.41     826   815.3     28.74
     743   14.42     817   814.8     28.58
     744   14.43     834   814.3     28.88
     745   14.44     816     814     28.57
     746   14.45     819   813.7     28.62
     747   14.46     816   813.4     28.57
     748   14.47     813   813.2     28.51
     749   14.48     810   813.1     28.46
     750   14.49     832     813     28.84
     751   14.50     832     813     28.84
     752   14.51     824   813.1     28.71
     753   14.52     846   813.2     29.09
     754   14.53     833   813.3     28.86
     755   14.54     828   813.6     28.77
     756   14.55     840   813.9     28.98
     757   14.56     824   814.3     28.71
     758   14.57     820   814.7     28.64
     759   14.58     838   815.3     28.95
     760   14.59     832   815.9     28.84
     761   14.60     812   815.7     28.50
     762   14.61     828   816.6     28.77
     763   14.62     813   817.6     28.51
     764   14.63     803   818.7     28.34
     765   14.64     818     821     28.60
     766   14.65     818   822.5     28.60
     767   14.66     810   824.2     28.46
     768   14.67     826   826.1     28.74
     769   14.68     823   828.2     28.69
     770   14.69     821   830.5     28.65
     771   14.70     832   834.2     28.84
     772   14.71     827   837.1     28.76
     773   14.72     835   840.5     28.90
     774   14.73     853   844.2     29.21
     775   14.74     844   848.5     29.05
     776   14.75     845   853.2     29.07
     777   14.76     861   858.6     29.34
     778   14.77     848   864.8     29.12
     779   14.78     858   871.8     29.29
     780   14.79     869   879.8     29.48
     781   14.80     885   882.5     29.75
     782   14.81     895   893.3     29.92
     783   14.82     917   905.9     30.28
     784   14.83     933   920.7     30.55
     785   14.84     940   938.1     30.66
     786   14.85     960     959     30.98
     787   14.86     973   984.2     31.19
     788   14.87    1032  1015.2     32.12
     789   14.88    1063  1054.1     32.60
     790   14.89    1118  1105.5     33.44
     791   14.90    1183  1179.8     34.39
     792   14.91    1329  1297.6     36.46
     793   14.92    1470    1485     38.34
     794   14.93    1784  1751.3     42.24
     795   14.94    2087  2056.7     45.68
     796   14.95    2374  2323.3     48.72
     797   14.96    2604  2614.9     51.03
     798   14.97    3188  3183.9     56.46
     799   14.98    4212    4306     64.90
     800   14.99    6147  6229.9     78.40
     801   15.00    9155    9050     95.68
     802   15.01   11783 11988.2    108.55
     803   15.02   11931 12468.2    109.23
     804   15.03    9398  9675.3     96.94
     805   15.04    6417  6534.9     80.11
     806   15.05    4176  4329.8     64.62
     807   15.06    2896    2989     53.81
     808   15.07    2220  2226.8     47.12
     809   15.08    1819  1796.6     42.65
     810   15.09    1579  1539.5     39.74
     811   15.10    1396  1371.7     37.36
     812   15.11    1257  1253.7     35.45
     813   15.12    1190  1166.8     34.50
     814   15.13    1121  1100.7     33.48
     815   15.14    1055  1049.3     32.48
     816   15.15    1028  1008.6     32.06
     817   15.16     974   975.7     31.21
     818   15.17     952   948.8     30.85
     819   15.18     930   926.6     30.50
     820   15.19     906     908     30.10
     821   15.20     885   892.2     29.75
     822   15.21     872   878.8     29.53
     823   15.22     846   867.3     29.09
     824   15.23     834   857.3     28.88
     825   15.24     831   848.6     28.83
     826   15.25     818   840.9     28.60
     827   15.26     814   833.3     28.53
     828   15.27     807   827.4     28.41
     829   15.28     807   822.2     28.41
     830   15.29     801   817.5     28.30
     831   15.30     809   813.4     28.44
     832   15.31     818   809.7     28.60
     833   15.32     804   806.4     28.35
     834   15.33     790   803.5     28.11
     835   15.34     784   800.8     28.00
     836   15.35     788   798.5     28.07
     837   15.36     791   796.4     28.12
     838   15.37     780   794.5     27.93
     839   15.38     783   792.9     27.98
     840   15.39     785   791.5     28.02
     841   15.40     780   790.3     27.93
     842   15.41     787   789.3     28.05
     843   15.42     795   788.6     28.20
     844   15.43     777     788     27.87
     845   15.44     779   787.7     27.91
     846   15.45     786   787.6     28.04
     847   15.46     785   787.8     28.02
     848   15.47     772   788.2     27.78
     849   15.48     794     789     28.18
     850   15.49     800   790.1     28.28
     851   15.50     774   791.6     27.82
     852   15.51     780   793.6     27.93
     853   15.52     802   796.3     28.32
     854   15.53     789   799.7     28.09
     855   15.54     811   803.9     28.48
     856   15.55     800   809.4     28.28
     857   15.56     800   816.3     28.28
     858   15.57     819   825.3     28.62
     859   15.58     835   836.9     28.90
     860   15.59     851   852.3     29.17
     861   15.60     876   873.2     29.60
     862   15.61     926   902.8     30.43
     863   15.62     966   947.3     31.08
     864   15.63    1040  1019.6     32.25
     865   15.64    1156    1143     34.00
     866   15.65    1359  1353.6     36.86
     867   15.66    1735  1695.3     41.65
     868   15.67    2281  2197.9     47.76
     869   15.68    2826  2771.3     53.16
     870   15.69    3038    2999     55.12
     871   15.70    2601  2573.7     51.00
     872   15.71    1998  1966.7     44.70
     873   15.72    1501  1510.4     38.74
     874   15.73    1224  1223.4     34.99
     875   15.74    1056  1056.4     32.50
     876   15.75     977   961.7     31.26
     877   15.76     920   905.8     30.33
     878   15.77     887   869.9     29.78
     879   15.78     863   845.1     29.38
     880   15.79     829   826.8     28.79
     881   15.80     818   812.9     28.60
     882   15.81     803   802.1     28.34
     883   15.82     793   793.5     28.16
     884   15.83     781   786.5     27.95
     885   15.84     792   780.7     28.14
     886   15.85     774   775.9     27.82
     887   15.86     771   771.9     27.77
     888   15.87     767   768.4     27.69
     889   15.88     762   765.4     27.60
     890   15.89     746   762.7     27.31
     891   15.90     760   760.4     27.57
     892   15.91     758   758.4     27.53
     893   15.92     751   756.6     27.40
     894   15.93     760   754.9     27.57
     895   15.94     754   753.4     27.46
     896   15.95     760   752.1     27.57
     897   15.96     747   750.8     27.33
     898   15.97     743   749.7     27.26
     899   15.98     733   748.7     27.07
     900   15.99     742   747.7     27.24
     901   16.00     736   746.8     27.13
     902   16.01     731   745.9     27.04
     903   16.02     755   745.2     27.48
     904   16.03     739   744.4     27.18
     905   16.04     717   743.7     26.78
     906   16.05     743     743     27.26
     907   16.06     746   742.4     27.31
     908   16.07     738   741.8     27.17
     909   16.08     750   741.2     27.39
     910   16.09     730   740.7     27.02
     911   16.10     732   740.2     27.06
     912   16.11     735   739.7     27.11
     913   16.12     737   739.2     27.15
     914   16.13     723   738.7     26.89
     915   16.14     736   739.8     27.13
     916   16.15     751   739.4     27.40
     917   16.16     728     739     26.98
     918   16.17     743   738.6     27.26
     919   16.18     735   738.2     27.11
     920   16.19     725   737.9     26.93
     921   16.20     737   737.5     27.15
     922   16.21     741   737.2     27.22
     923   16.22     734   736.9     27.09
     924   16.23     728   736.5     26.98
     925   16.24     738   736.2     27.17
     926   16.25     714   735.9     26.72
     927   16.26     724   735.6     26.91
     928   16.27     723   735.4     26.89
     929   16.28     737   735.1     27.15
     930   16.29     738   734.8     27.17
     931   16.30     729   734.5     27.00
     932   16.31     736   734.3     27.13
     933   16.32     730     734     27.02
     934   16.33     733   733.8     27.07
     935   16.34     734   733.5     27.09
     936   16.35     757   733.3     27.51
     937   16.36     741   733.1     27.22
     938   16.37     729   732.8     27.00
     939   16.38     741   732.6     27.22
     940   16.39     732   732.4     27.06
     941   16.40     725   732.2     26.93
     942   16.41     740     732     27.20
     943   16.42     731   731.8     27.04
     944   16.43     724   731.6     26.91
     945   16.44     715   731.4     26.74
     946   16.45     734   731.2     27.09
     947   16.46     727     731     26.96
     948   16.47     734   730.8     27.09
     949   16.48     730   730.6     27.02
     950   16.49     725   730.5     26.93
     951   16.50     732   730.3     27.06
     952   16.51     729   730.1     27.00
     953   16.52     715     730     26.74
     954   16.53     728   729.8     26.98
     955   16.54     732   729.6     27.06
     956   16.55     737   729.5     27.15
     957   16.56     722   729.3     26.87
     958   16.57     718   729.2     26.80
     959   16.58     718     729     26.80
     960   16.59     736   728.9     27.13
     961   16.60     717   728.7     26.78
     962   16.61     722   728.6     26.87
     963   16.62     735   728.5     27.11
     964   16.63     716   728.3     26.76
     965   16.64     724   727.2     26.91
     966   16.65     729   727.1     27.00
     967   16.66     720     727     26.83
     968   16.67     717   726.9     26.78
     969   16.68     733   726.8     27.07
     970   16.69     718   726.7     26.80
     971   16.70     732   726.6     27.06
     972   16.71     735   726.5     27.11
     973   16.72     726   726.4     26.94
     974   16.73     721   726.3     26.85
     975   16.74     727   726.2     26.96
     976   16.75     719   726.1     26.81
     977   16.76     720     726     26.83
     978   16.77     737     726     27.15
     979   16.78     742   725.9     27.24
     980   16.79     728   725.8     26.98
     981   16.80     738   725.7     27.17
     982   16.81     734   725.6     27.09
     983   16.82     717   725.6     26.78
     984   16.83     723   725.5     26.89
     985   16.84     725   725.4     26.93
     986   16.85     723   725.4     26.89
     987   16.86     726   725.3     26.94
     988   16.87     726   725.2     26.94
     989   16.88     720   725.2     26.83
     990   16.89     725   725.1     26.93
     991   16.90     744   725.1     27.28
     992   16.91     742     725     27.24
     993   16.92     730     725     27.02
     994   16.93     733   724.9     27.07
     995   16.94     722   724.9     26.87
     996   16.95     737   724.8     27.15
     997   16.96     723   724.8     26.89
     998   16.97     724   724.8     26.91
     999   16.98     717   724.7     26.78
    1000   16.99     733   724.7     27.07
    1001   17.00     722   724.7     26.87
    1002   17.01     720   724.7     26.83
    1003   17.02     736   723.5     27.13
    1004   17.03     726   723.5     26.94
    1005   17.04     733   723.5     27.07
    1006   17.05     727   723.5     26.96
    1007   17.06     734   723.5     27.09
    1008   17.07     730   723.5     27.02
    1009   17.08     726   723.5     26.94
    1010   17.09     733   723.6     27.07
    1011   17.10     749   723.6     27.37
    1012   17.11     733   723.6     27.07
    1013   17.12     741   723.6     27.22
    1014   17.13     739   723.6     27.18
    1015   17.14     725   723.7     26.93
    1016   17.15     726   723.7     26.94
    1017   17.16     730   723.8     27.02
    1018   17.17     736   723.8     27.13
    1019   17.18     739   723.9     27.18
    1020   17.19     747   723.9     27.33
    1021   17.20     749     724     27.37
    1022   17.21     728   724.1     26.98
    1023   17.22     742   724.1     27.24
    1024   17.23     721   724.2     26.85
    1025   17.24     726   724.3     26.94
    1026   17.25     736   724.4     27.13
    1027   17.26     743   724.5     27.26
    1028   17.27     735   724.6     27.11
    1029   17.28     735   724.7     27.11
    1030   17.29     730   724.8     27.02
    1031   17.30     735   724.9     27.11
    1032   17.31     740   726.2     27.20
    1033   17.32     722   726.4     26.87
    1034   17.33     735   726.7     27.11
    1035   17.34     738   726.9     27.17
    1036   17.35     739   727.3     27.18
    1037   17.36     742   727.6     27.24
    1038   17.37     745     728     27.29
    1039   17.38     740   728.4     27.20
    1040   17.39     739   728.9     27.18
    1041   17.40     756   729.5     27.50
    1042   17.41     727   730.1     26.96
    1043   17.42     728   730.9     26.98
    1044   17.43     740   731.8     27.20
    1045   17.44     747   732.9     27.33
    1046   17.45     749   734.3     27.37
    1047   17.46     751   736.1     27.40
    1048   17.47     743   738.5     27.26
    1049   17.48     747   742.1     27.33
    1050   17.49     771   748.5     27.77
    1051   17.50     784   762.8     28.00
    1052   17.51     792   795.3     28.14
    1053   17.52     867   858.5     29.44
    1054   17.53     940   950.7     30.66
    1055   17.54    1021    1034     31.95
    1056   17.55    1034    1037     32.16
    1057   17.56     961   956.9     31.00
    1058   17.57     858   864.9     29.29
    1059   17.58     823   801.2     28.69
    1060   17.59     796   768.5     28.21
    1061   17.60     753   754.7     27.44
    1062   17.61     763   749.2     27.62
    1063   17.62     764   746.7     27.64
    1064   17.63     745   745.4     27.29
    1065   17.64     743   744.8     27.26
    1066   17.65     766   744.7     27.68
    1067   17.66     743   744.8     27.26
    1068   17.67     761   745.3     27.59
    1069   17.68     759   745.9     27.55
    1070   17.69     756   746.8     27.50
    1071   17.70     765   747.8     27.66
    1072   17.71     763   748.9     27.62
    1073   17.72     761   750.2     27.59
    1074   17.73     765   751.7     27.66
    1075   17.74     752   753.3     27.42
    1076   17.75     765   755.1     27.66
    1077   17.76     761   757.1     27.59
    1078   17.77     764   759.3     27.64
    1079   17.78     765   761.7     27.66
    1080   17.79     785   764.3     28.02
    1081   17.80     794   766.2     28.18
    1082   17.81     777   769.5     27.87
    1083   17.82     784     773     28.00
    1084   17.83     788   776.9     28.07
    1085   17.84     797   781.3     28.23
    1086   17.85     810     786     28.46
    1087   17.86     796   791.3     28.21
    1088   17.87     812   797.3     28.50
    1089   17.88     808   803.9     28.43
    1090   17.89     834   811.3     28.88
    1091   17.90     847   819.7     29.10
    1092   17.91     849   829.3     29.14
    1093   17.92     849   840.2     29.14
    1094   17.93     865   852.6     29.41
    1095   17.94     904   867.1     30.07
    1096   17.95     914   883.8     30.23
    1097   17.96     930   903.5     30.50
    1098   17.97     957   926.7     30.94
    1099   17.98     999   954.4     31.61
    1100   17.99    1015   987.8     31.86
    1101   18.00    1078  1028.5     32.83
    1102   18.01    1127  1078.9     33.57
    1103   18.02    1186  1142.2     34.44
    1104   18.03    1302  1223.2     36.08
    1105   18.04    1425  1329.4     37.75
    1106   18.05    1560  1473.8     39.50
    1107   18.06    1791    1681     42.32
    1108   18.07    2115  1999.6     45.99
    1109   18.08    2544  2520.6     50.44
    1110   18.09    3355    3393     57.92
    1111   18.10    4613  4818.2     67.92
    1112   18.11    6778  7003.1     82.33
    1113   18.12   10055  9960.2    100.27
    1114   18.13   12881 12730.3    113.49
    1115   18.14   12931 12896.5    113.71
    1116   18.15   10393 10108.1    101.95
    1117   18.16    7170  6999.4     84.68
    1118   18.17    4717  4731.2     68.68
    1119   18.18    3293  3286.8     57.38
    1120   18.19    2455  2426.7     49.55
    1121   18.20    1985  1925.1     44.55
    1122   18.21    1712  1623.5     41.38
    1123   18.22    1517  1427.2     38.95
    1124   18.23    1372  1290.2     37.04
    1125   18.24    1255  1189.5     35.43
    1126   18.25    1178  1112.9     34.32
    1127   18.26    1107  1053.1     33.27
    1128   18.27    1064  1005.7     32.62
    1129   18.28     992   967.4     31.50
    1130   18.29     959   936.1     30.97
    1131   18.30     939   910.2     30.64
    1132   18.31     905   888.4     30.08
    1133   18.32     886   870.1     29.77
    1134   18.33     865   854.4     29.41
    1135   18.34     859     841     29.31
    1136   18.35     851   829.3     29.17
    1137   18.36     833   819.1     28.86
    1138   18.37     825   810.2     28.72
    1139   18.38     823   802.4     28.69
    1140   18.39     810   795.4     28.46
    1141   18.40     804   789.2     28.35
    1142   18.41     795   783.7     28.20
    1143   18.42     795   778.7     28.20
    1144   18.43     798   774.2     28.25
    1145   18.44     789   770.2     28.09
    1146   18.45     773   766.5     27.80
    1147   18.46     769   763.2     27.73
    1148   18.47     788   760.1     28.07
    1149   18.48     778   757.3     27.89
    1150   18.49     763   754.8     27.62
    1151   18.50     779   752.4     27.91
    1152   18.51     782   750.2     27.96
    1153   18.52     768   748.2     27.71
    1154   18.53     766   746.4     27.68
    1155   18.54     760   744.6     27.57
    1156   18.55     766     743     27.68
    1157   18.56     754   741.5     27.46
    1158   18.57     771   740.2     27.77
    1159   18.58     756   738.9     27.50
    1160   18.59     765   737.6     27.66
    1161   18.60     762   736.5     27.60
    1162   18.61     750   735.4     27.39
    1163   18.62     746   734.4     27.31
    1164   18.63     769   733.5     27.73
    1165   18.64     750   732.6     27.39
    1166   18.65     756   731.8     27.50
    1167   18.66     747     731     27.33
    1168   18.67     757   730.2     27.51
    1169   18.68     757   729.5     27.51
    1170   18.69     759   728.9     27.55
    1171   18.70     760   728.3     27.57
    1172   18.71     754   727.7     27.46
    1173   18.72     757   727.1     27.51
    1174   18.73     756   726.6     27.50
    1175   18.74     745     726     27.29
    1176   18.75     748   725.6     27.35
    1177   18.76     745   725.1     27.29
    1178   18.77     751   724.7     27.40
    1179   18.78     742   724.3     27.24
    1180   18.79     750   723.9     27.39
    1181   18.80     751   723.5     27.40
    1182   18.81     754   723.1     27.46
    1183   18.82     764   722.8     27.64
    1184   18.83     757   722.5     27.51
    1185   18.84     757   722.2     27.51
    1186   18.85     743   721.9     27.26
    1187   18.86     744   721.6     27.28
    1188   18.87     745   721.3     27.29
    1189   18.88     737   721.1     27.15
    1190   18.89     741   720.9     27.22
    1191   18.90     746   720.6     27.31
    1192   18.91     753   720.4     27.44
    1193   18.92     750   720.2     27.39
    1194   18.93     754     720     27.46
    1195   18.94     747   719.8     27.33
    1196   18.95     749   719.7     27.37
    1197   18.96     745   719.5     27.29
    1198   18.97     749   719.4     27.37
    1199   18.98     732   719.2     27.06
    1200   18.99     735   719.1     27.11
    1201   19.00     728     719     26.98
    1202   19.01     726   718.9     26.94
    1203   19.02     749   718.8     27.37
    1204   19.03     748   718.7     27.35
    1205   19.04     728   718.6     26.98
    1206   19.05     736   718.5     27.13
    1207   19.06     736   718.5     27.13
    1208   19.07     739   718.4     27.18
    1209   19.08     747   718.4     27.33
    1210   19.09     744   718.4     27.28
    1211   19.10     758   718.3     27.53
    1212   19.11     754   718.3     27.46
    1213   19.12     749   718.3     27.37
    1214   19.13     748   718.3     27.35
    1215   19.14     756   718.4     27.50
    1216   19.15     744   718.4     27.28
    1217   19.16     748   718.5     27.35
    1218   19.17     759   719.5     27.55
    1219   19.18     743   719.6     27.26
    1220   19.19     748   719.7     27.35
    1221   19.20     732   719.8     27.06
    1222   19.21     749     720     27.37
    1223   19.22     736   720.1     27.13
    1224   19.23     749   720.3     27.37
    1225   19.24     735   720.5     27.11
    1226   19.25     737   720.7     27.15
    1227   19.26     749   720.9     27.37
    1228   19.27     740   721.2     27.20
    1229   19.28     736   721.5     27.13
    1230   19.29     758   721.8     27.53
    1231   19.30     748   722.1     27.35
    1232   19.31     753   722.5     27.44
    1233   19.32     744   722.9     27.28
    1234   19.33     756   723.3     27.50
    1235   19.34     745   723.8     27.29
    1236   19.35     749   724.3     27.37
    1237   19.36     757   724.8     27.51
    1238   19.37     749   725.5     27.37
    1239   19.38     759   726.1     27.55
    1240   19.39     759   726.8     27.55
    1241   19.40     746   727.6     27.31
    1242   19.41     740   728.5     27.20
    1243   19.42     749   729.4     27.37
    1244   19.43     751   730.4     27.40
    1245   19.44     761   731.6     27.59
    1246   19.45     749   732.8     27.37
    1247   19.46     744   734.2     27.28
    1248   19.47     768   735.7     27.71
    1249   19.48     760   737.4     27.57
    1250   19.49     752   739.2     27.42
    1251   19.50     766   741.3     27.68
    1252   19.51     766   743.6     27.68
    1253   19.52     759   746.2     27.55
    1254   19.53     775   749.1     27.84
    1255   19.54     778   752.4     27.89
    1256   19.55     765   756.1     27.66
    1257   19.56     787   760.3     28.05
    1258   19.57     794   765.2     28.18
    1259   19.58     793   770.8     28.16
    1260   19.59     806   777.3     28.39
    1261   19.60     813   784.9     28.51
    1262   19.61     822   793.9     28.67
    1263   19.62     830   804.6     28.81
    1264   19.63     853   817.4     29.21
    1265   19.64     871   832.9     29.51
    1266   19.65     892     852     29.87
    1267   19.66     918   875.9     30.30
    1268   19.67     946   906.3     30.76
    1269   19.68     995   945.7     31.54
    1270   19.69    1039   998.8     32.23
    1271   19.70    1112  1073.6     33.35
    1272   19.71    1252  1186.4     35.38
    1273   19.72    1415  1366.9     37.62
    1274   19.73    1672  1664.7     40.89
    1275   19.74    2087  2148.4     45.68
    1276   19.75    2786  2894.2     52.78
    1277   19.76    3871    3939     62.22
    1278   19.77    5196  5083.9     72.08
    1279   19.78    5642  5570.5     75.11
    1280   19.79    4940  4825.9     70.29
    1281   19.80    3741  3611.5     61.16
    1282   19.81    2686    2615     51.83
    1283   19.82    1946  1941.7     44.11
    1284   19.83    1545  1523.3     39.31
    1285   19.84    1314    1274     36.25
    1286   19.85    1182  1125.8     34.38
    1287   19.86    1086    1032     32.95
    1288   19.87    1015   968.5     31.86
    1289   19.88     965   922.9     31.06
    1290   19.89     944   888.7     30.72
    1291   19.90     885   862.3     29.75
    1292   19.91     884   841.6     29.73
    1293   19.92     865   825.2     29.41
    1294   19.93     838   811.9     28.95
    1295   19.94     810   801.1     28.46
    1296   19.95     824   792.3     28.71
    1297   19.96     815     785     28.55
    1298   19.97     817     779     28.58
    1299   19.98     811   774.1     28.48
    1300   19.99     792   770.2     28.14
    1301   20.00     784     767     28.00
    1302   20.01     796   764.6     28.21
    1303   20.02     782   762.8     27.96
    1304   20.03     792   761.7     28.14
    1305   20.04     785   761.3     28.02
    1306   20.05     789   761.7     28.09
    1307   20.06     787   762.9     28.05
    1308   20.07     806   765.7     28.39
    1309   20.08     794   770.8     28.18
    1310   20.09     805     780     28.37
    1311   20.10     835     796     28.90
    1312   20.11     856   821.6     29.26
    1313   20.12     896   858.5     29.93
    1314   20.13     946   905.1     30.76
    1315   20.14     980   953.1     31.30
    1316   20.15    1003   991.1     31.67
    1317   20.16    1018  1002.1     31.91
    1318   20.17    1001   984.1     31.64
    1319   20.18     981   952.4     31.32
    1320   20.19     970   923.2     31.14
    1321   20.20     953   906.7     30.87
    1322   20.21     955   908.1     30.90
    1323   20.22     993   930.8     31.51
    1324   20.23    1049   980.8     32.39
    1325   20.24    1101  1071.4     33.18
    1326   20.25    1223  1226.2     34.97
    1327   20.26    1433  1482.3     37.85
    1328   20.27    1840    1870     42.90
    1329   20.28    2429  2405.8     49.28
    1330   20.29    3015  2973.2     54.91
    1331   20.30    3224  3178.5     56.78
    1332   20.31    2862  2774.5     53.50
    1333   20.32    2230  2163.1     47.22
    1334   20.33    1685  1667.3     41.05
    1335   20.34    1341  1332.1     36.62
    1336   20.35    1136  1122.8     33.70
    1337   20.36    1005   997.2     31.70
    1338   20.37     950   921.5     30.82
    1339   20.38     873   873.5     29.55
    1340   20.39     852   840.7     29.19
    1341   20.40     820     817     28.64
    1342   20.41     813   799.1     28.51
    1343   20.42     805   785.1     28.37
    1344   20.43     786     774     28.04
    1345   20.44     772     765     27.78
    1346   20.45     759   757.7     27.55
    1347   20.46     753   751.6     27.44
    1348   20.47     746   745.5     27.31
    1349   20.48     735   741.2     27.11
    1350   20.49     735   737.5     27.11
    1351   20.50     731   734.3     27.04
    1352   20.51     738   731.6     27.17
    1353   20.52     732   729.2     27.06
    1354   20.53     723     727     26.89
    1355   20.54     722   725.1     26.87
    1356   20.55     727   723.4     26.96
    1357   20.56     718   721.9     26.80
    1358   20.57     708   720.6     26.61
    1359   20.58     726   719.4     26.94
    1360   20.59     717   718.2     26.78
    1361   20.60     714   717.2     26.72
    1362   20.61     713   716.3     26.70
    1363   20.62     711   715.4     26.66
    1364   20.63     717   714.7     26.78
    1365   20.64     715   713.9     26.74
    1366   20.65     711   713.3     26.66
    1367   20.66     704   712.6     26.53
    1368   20.67     711   712.1     26.66
    1369   20.68     716   711.5     26.76
    1370   20.69     713     711     26.70
    1371   20.70     715   710.6     26.74
    1372   20.71     703   710.1     26.51
    1373   20.72     707   709.7     26.59
    1374   20.73     709   709.3     26.63
    1375   20.74     711   708.9     26.66
    1376   20.75     696   708.6     26.38
    1377   20.76     701   708.3     26.48
    1378   20.77     704     708     26.53
    1379   20.78     700   707.7     26.46
    1380   20.79     701   707.4     26.48
    1381   20.80     700   707.1     26.46
    1382   20.81     702   706.9     26.50
    1383   20.82     703   706.7     26.51
    1384   20.83     709   706.4     26.63
    1385   20.84     708   706.2     26.61
    1386   20.85     709     706     26.63
    1387   20.86     701   705.8     26.48
    1388   20.87     703   705.7     26.51
    1389   20.88     694   705.5     26.34
    1390   20.89     699   705.3     26.44
    1391   20.90     707   705.2     26.59
    1392   20.91     718     705     26.80
    1393   20.92     707   704.9     26.59
    1394   20.93     715   704.8     26.74
    1395   20.94     715   704.6     26.74
    1396   20.95     715   704.5     26.74
    1397   20.96     717   704.4     26.78
    1398   20.97     720   704.3     26.83
    1399   20.98     702   704.2     26.50
    1400   20.99     712   704.1     26.68
    1401   21.00     712     704     26.68
    1402   21.01     704     704     26.53
    1403   21.02     700   703.9     26.46
    1404   21.03     709   703.8     26.63
    1405   21.04     718   703.8     26.80
    1406   21.05     710   703.7     26.65
    1407   21.06     702   703.7     26.50
    1408   21.07     691   703.6     26.29
    1409   21.08     704   704.7     26.53
    1410   21.09     700   704.9     26.46
    1411   21.10     697   705.1     26.40
    1412   21.11     694   705.4     26.34
    1413   21.12     702   705.9     26.50
    1414   21.13     704   706.6     26.53
    1415   21.14     707   707.8     26.59
    1416   21.15     714   710.4     26.72
    1417   21.16     721   716.5     26.85
    1418   21.17     704   729.7     26.53
    1419   21.18     734   751.9     27.09
    1420   21.19     757     778     27.51
    1421   21.20     772   790.8     27.78
    1422   21.21     760     777     27.57
    1423   21.22     734   750.9     27.09
    1424   21.23     729   729.2     27.00
    1425   21.24     706   716.5     26.57
    1426   21.25     686   710.7     26.19
    1427   21.26     690   708.3     26.27
    1428   21.27     687   707.2     26.21
    1429   21.28     697   706.6     26.40
    1430   21.29     684   706.2     26.15
    1431   21.30     684     705     26.15
    1432   21.31     680   704.9     26.08
    1433   21.32     693   704.9     26.32
    1434   21.33     685   703.9     26.17
    1435   21.34     677   704.1     26.02
    1436   21.35     683   704.3     26.13
    1437   21.36     696   704.5     26.38
    1438   21.37     691   704.7     26.29
    1439   21.38     681   704.9     26.10
    1440   21.39     689   704.2     26.25
    1441   21.40     687   704.4     26.21
    1442   21.41     686   704.7     26.19
    1443   21.42     683     705     26.13
    1444   21.43     690   705.3     26.27
    1445   21.44     690   705.6     26.27
    1446   21.45     695     706     26.36
    1447   21.46     686   706.3     26.19
    1448   21.47     682   706.7     26.12
    1449   21.48     678   707.1     26.04
    1450   21.49     693   707.5     26.32
    1451   21.50     671     708     25.90
    1452   21.51     693   708.4     26.32
    1453   21.52     692   708.9     26.31
    1454   21.53     691   709.4     26.29
    1455   21.54     696     710     26.38
    1456   21.55     685   710.5     26.17
    1457   21.56     692   711.1     26.31
    1458   21.57     680   711.8     26.08
    1459   21.58     688   712.4     26.23
    1460   21.59     686   713.1     26.19
    1461   21.60     682   713.9     26.12
    1462   21.61     680   714.7     26.08
    1463   21.62     692   715.5     26.31
    1464   21.63     686   716.3     26.19
    1465   21.64     690   717.3     26.27
    1466   21.65     695   718.2     26.36
    1467   21.66     701   719.3     26.48
    1468   21.67     698   720.3     26.42
    1469   21.68     707   721.5     26.59
    1470   21.69     699   722.7     26.44
    1471   21.70     707     724     26.59
    1472   21.71     697   725.4     26.40
    1473   21.72     708   726.8     26.61
    1474   21.73     703   728.4     26.51
    1475   21.74     707     730     26.59
    1476   21.75     726   731.7     26.94
    1477   21.76     709   733.6     26.63
    1478   21.77     706   735.6     26.57
    1479   21.78     716   737.7     26.76
    1480   21.79     706     740     26.57
    1481   21.80     711   742.4     26.66
    1482   21.81     724     745     26.91
    1483   21.82     727   747.8     26.96
    1484   21.83     724   750.8     26.91
    1485   21.84     738     754     27.17
    1486   21.85     752   757.5     27.42
    1487   21.86     744   761.2     27.28
    1488   21.87     764   765.2     27.64
    1489   21.88     754   769.6     27.46
    1490   21.89     776   774.3     27.86
    1491   21.90     781   779.5     27.95
    1492   21.91     769   785.1     27.73
    1493   21.92     765   791.2     27.66
    1494   21.93     782   797.9     27.96
    1495   21.94     794   805.3     28.18
    1496   21.95     807   813.3     28.41
    1497   21.96     811   822.2     28.48
    1498   21.97     837   832.1     28.93
    1499   21.98     837     843     28.93
    1500   21.99     868   855.2     29.46
    1501   22.00     868   868.8     29.46
    1502   22.01     896     884     29.93
    1503   22.02     924   901.2     30.40
    1504   22.03     942   920.6     30.69
    1505   22.04     967   942.8     31.10
    1506   22.05    1010   968.1     31.78
    1507   22.06    1030   997.3     32.09
    1508   22.07    1083  1031.1     32.91
    1509   22.08    1138  1070.5     33.73
    1510   22.09    1200    1117     34.64
    1511   22.10    1270  1172.1     35.64
    1512   22.11    1353  1238.2     36.78
    1513   22.12    1433  1318.3     37.85
    1514   22.13    1549  1416.7     39.36
    1515   22.14    1697  1539.4     41.19
    1516   22.15    1875  1694.8     43.30
    1517   22.16    2103  1896.8     45.86
    1518   22.17    2453  2168.4     49.53
    1519   22.18    2826  2552.5     53.16
    1520   22.19    3353  3130.1     57.91
    1521   22.20    4187  4045.3     64.71
    1522   22.21    5413  5524.9     73.57
    1523   22.22    7471  7873.7     86.43
    1524   22.23   10968 11417.5    104.73
    1525   22.24   16253 16302.7    127.49
    1526   22.25   22151 21685.8    148.83
    1527   22.26   24799 24360.1    157.48
    1528   22.27   21829 21485.6    147.75
    1529   22.28   16022 15878.2    126.58
    1530   22.29   10783 10938.6    103.84
    1531   22.30    7104  7446.2     84.29
    1532   22.31    4961  5187.3     70.43
    1533   22.32    3735  3796.6     61.11
    1534   22.33    3051  2950.5     55.24
    1535   22.34    2542    2419     50.42
    1536   22.35    2244    2064     47.37
    1537   22.36    1971  1811.3     44.40
    1538   22.37    1767  1622.5     42.04
    1539   22.38    1617  1476.9     40.21
    1540   22.39    1491  1361.9     38.61
    1541   22.40    1363  1270.7     36.92
    1542   22.41    1283  1195.5     35.82
    1543   22.42    1212  1133.5     34.81
    1544   22.43    1145  1081.8     33.84
    1545   22.44    1087  1038.2     32.97
    1546   22.45    1039  1001.1     32.23
    1547   22.46     987   969.2     31.42
    1548   22.47     969   941.8     31.13
    1549   22.48     927   917.8     30.45
    1550   22.49     903   896.9     30.05
    1551   22.50     888   878.5     29.80
    1552   22.51     857   862.2     29.27
    1553   22.52     836   847.6     28.91
    1554   22.53     823   834.7     28.69
    1555   22.54     799     823     28.27
    1556   22.55     792   812.6     28.14
    1557   22.56     786   803.1     28.04
    1558   22.57     758   794.5     27.53
    1559   22.58     761   786.7     27.59
    1560   22.59     745   779.5     27.29
    1561   22.60     741     773     27.22
    1562   22.61     747     767     27.33
    1563   22.62     723   761.4     26.89
    1564   22.63     719   756.3     26.81
    1565   22.64     715   751.6     26.74
    1566   22.65     712   747.3     26.68
    1567   22.66     716   743.2     26.76
    1568   22.67     711   739.4     26.66
    1569   22.68     726   735.9     26.94
    1570   22.69     702   732.6     26.50
    1571   22.70     700   729.5     26.46
    1572   22.71     708   726.6     26.61
    1573   22.72     700   723.9     26.46
    1574   22.73     693   721.4     26.32
    1575   22.74     690     719     26.27
    1576   22.75     688   716.7     26.23
    1577   22.76     684   714.6     26.15
    1578   22.77     684   712.5     26.15
    1579   22.78     684   710.6     26.15
    1580   22.79     682   708.8     26.12
    1581   22.80     667   707.1     25.83
    1582   22.81     677   705.5     26.02
    1583   22.82     678   703.9     26.04
    1584   22.83     675   702.4     25.98
    1585   22.84     669     701     25.87
    1586   22.85     670   699.7     25.88
    1587   22.86     669   698.4     25.87
    1588   22.87     684   697.2     26.15
    1589   22.88     677     696     26.02
    1590   22.89     678   694.9     26.04
    1591   22.90     663   693.8     25.75
    1592   22.91     661   692.8     25.71
    1593   22.92     684   692.8     26.15
    1594   22.93     662   691.9     25.73
    1595   22.94     674     691     25.96
    1596   22.95     677   690.2     26.02
    1597   22.96     676   689.4     26.00
    1598   22.97     670   688.7     25.88
    1599   22.98     662     689     25.73
    1600   22.99     669   688.5     25.87
    1601   23.00     662   688.1     25.73
    1602   23.01     669   687.7     25.87
    1603   23.02     672   687.4     25.92
    1604   23.03     681   687.3     26.10
    1605   23.04     673   687.3     25.94
    1606   23.05     681   687.6     26.10
    1607   23.06     671   688.3     25.90
    1608   23.07     674   689.9     25.96
    1609   23.08     676   694.1     26.00
    1610   23.09     696   704.7     26.38
    1611   23.10     718   726.8     26.80
    1612   23.11     740     762     27.20
    1613   23.12     769   799.1     27.73
    1614   23.13     791   809.7     28.12
    1615   23.14     770   781.9     27.75
    1616   23.15     721   742.7     26.85
    1617   23.16     714   712.8     26.72
    1618   23.17     677   696.3     26.02
    1619   23.18     660   688.9     25.69
    1620   23.19     678   685.8     26.04
    1621   23.20     669   684.2     25.87
    1622   23.21     670   683.3     25.88
    1623   23.22     666   682.7     25.81
    1624   23.23     675   682.3     25.98
    1625   23.24     668   682.1     25.85
    1626   23.25     664   682.1     25.77
    1627   23.26     670   682.1     25.88
    1628   23.27     667   682.3     25.83
    1629   23.28     666   682.6     25.81
    1630   23.29     662   682.1     25.73
    1631   23.30     659   682.7     25.67
    1632   23.31     656   683.5     25.61
    1633   23.32     661   684.3     25.71
    1634   23.33     641   685.3     25.32
    1635   23.34     664   686.4     25.77
    1636   23.35     657   687.8     25.63
    1637   23.36     660   690.3     25.69
    1638   23.37     669   692.1     25.87
    1639   23.38     677   694.1     26.02
    1640   23.39     688   696.5     26.23
    1641   23.40     686   699.2     26.19
    1642   23.41     691   702.4     26.29
    1643   23.42     697   706.1     26.40
    1644   23.43     711   710.3     26.66
    1645   23.44     710   715.4     26.65
    1646   23.45     722   721.3     26.87
    1647   23.46     728   728.3     26.98
    1648   23.47     739   736.6     27.18
    1649   23.48     752   746.8     27.42
    1650   23.49     765   759.1     27.66
    1651   23.50     781   774.3     27.95
    1652   23.51     792   793.2     28.14
    1653   23.52     840   817.4     28.98
    1654   23.53     880   848.9     29.66
    1655   23.54     933   891.5     30.55
    1656   23.55     980   952.1     31.30
    1657   23.56    1089  1043.6     33.00
    1658   23.57    1187    1188     34.45
    1659   23.58    1380  1418.9     37.15
    1660   23.59    1713  1779.6     41.39
    1661   23.60    2218    2315     47.10
    1662   23.61    3051  3039.6     55.24
    1663   23.62    3880  3816.4     62.29
    1664   23.63    4248  4183.6     65.18
    1665   23.64    3822  3779.5     61.82
    1666   23.65    3066  3016.5     55.37
    1667   23.66    2311  2354.8     48.07
    1668   23.67    1812    1893     42.57
    1669   23.68    1522    1586     39.01
    1670   23.69    1322  1368.8     36.36
    1671   23.70    1190  1201.3     34.50
    1672   23.71    1103  1069.3     33.21
    1673   23.72     992   967.3     31.50
    1674   23.73     939   891.5     30.64
    1675   23.74     869   837.3     29.48
    1676   23.75     830   799.4     28.81
    1677   23.76     800   773.8     28.28
    1678   23.77     759   754.6     27.55
    1679   23.78     748   739.9     27.35
    1680   23.79     737   728.3     27.15
    1681   23.80     718   718.8     26.80
    1682   23.81     725   710.8     26.93
    1683   23.82     703     704     26.51
    1684   23.83     692   698.2     26.31
    1685   23.84     668   693.2     25.85
    1686   23.85     664   688.8     25.77
    1687   23.86     661     685     25.71
    1688   23.87     670   681.5     25.88
    1689   23.88     667   678.5     25.83
    1690   23.89     660   675.8     25.69
    1691   23.90     658   673.3     25.65
    1692   23.91     659   671.1     25.67
    1693   23.92     652   669.1     25.53
    1694   23.93     643   667.3     25.36
    1695   23.94     643   665.6     25.36
    1696   23.95     638     664     25.26
    1697   23.96     632   662.6     25.14
    1698   23.97     654   661.2     25.57
    1699   23.98     646     660     25.42
    1700   23.99     635   658.8     25.20
    1701   24.00     650   657.7     25.50
    1702   24.01     635   656.7     25.20
    1703   24.02     636   654.8     25.22
    1704   24.03     636   653.9     25.22
    1705   24.04     632   653.1     25.14
    1706   24.05     638   652.4     25.26
    1707   24.06     639   651.6     25.28
    1708   24.07     638   650.9     25.26
    1709   24.08     640   650.2     25.30
    1710   24.09     626   649.6     25.02
    1711   24.10     633     649     25.16
    1712   24.11     630   648.4     25.10
    1713   24.12     630   647.8     25.10
    1714   24.13     632   647.2     25.14
    1715   24.14     620   646.7     24.90
    1716   24.15     639   646.2     25.28
    1717   24.16     628   645.7     25.06
    1718   24.17     637   645.2     25.24
    1719   24.18     629   644.7     25.08
    1720   24.19     625   644.3     25.00
    1721   24.20     631   643.8     25.12
    1722   24.21     632   643.4     25.14
    1723   24.22     628   642.9     25.06
    1724   24.23     624   642.5     24.98
    1725   24.24     629   642.1     25.08
    1726   24.25     622   641.7     24.94
    1727   24.26     619   638.3     24.88
    1728   24.27     627   637.9     25.04
    1729   24.28     617   637.6     24.84
    1730   24.29     622   637.2     24.94
    1731   24.30     623   636.9     24.96
    1732   24.31     614   636.6     24.78
    1733   24.32     619   635.3     24.88
    1734   24.33     628     635     25.06
    1735   24.34     616   634.7     24.82
    1736   24.35     625   634.4     25.00
    1737   24.36     619   634.1     24.88
    1738   24.37     616   633.9     24.82
    1739   24.38     613   633.6     24.76
    1740   24.39     615   633.3     24.80
    1741   24.40     615     633     24.80
    1742   24.41     611   632.8     24.72
    1743   24.42     615   632.5     24.80
    1744   24.43     614   632.3     24.78
    1745   24.44     614     632     24.78
    1746   24.45     613   631.8     24.76
    1747   24.46     619   631.5     24.88
    1748   24.47     624   631.3     24.98
    1749   24.48     623     631     24.96
    1750   24.49     620   630.8     24.90
    1751   24.50     617   630.5     24.84
    1752   24.51     624   630.3     24.98
    1753   24.52     607   630.1     24.64
    1754   24.53     610   629.8     24.70
    1755   24.54     615   629.6     24.80
    1756   24.55     619   629.4     24.88
    1757   24.56     626   629.1     25.02
    1758   24.57     624   628.9     24.98
    1759   24.58     613   628.7     24.76
    1760   24.59     609   629.6     24.68
    1761   24.60     614   629.5     24.78
    1762   24.61     616   629.5     24.82
    1763   24.62     616   629.5     24.82
    1764   24.63     616   629.5     24.82
    1765   24.64     606   629.6     24.62
    1766   24.65     615   629.9     24.80
    1767   24.66     616   630.3     24.82
    1768   24.67     614   631.2     24.78
    1769   24.68     616   632.8     24.82
    1770   24.69     634   635.9     25.18
    1771   24.70     640   641.2     25.30
    1772   24.71     641   649.7     25.32
    1773   24.72     645   661.5     25.40
    1774   24.73     648   675.5     25.46
    1775   24.74     669   688.6     25.87
    1776   24.75     682   695.8     26.12
    1777   24.76     674   692.9     25.96
    1778   24.77     663   681.7     25.75
    1779   24.78     640   667.2     25.30
    1780   24.79     641   653.7     25.32
    1781   24.80     629   643.2     25.08
    1782   24.81     627   636.1     25.04
    1783   24.82     619   631.6     24.88
    1784   24.83     615   628.1     24.80
    1785   24.84     625   626.6     25.00
    1786   24.85     623   625.6     24.96
    1787   24.86     607     625     24.64
    1788   24.87     616   624.5     24.82
    1789   24.88     602     624     24.54
    1790   24.89     597   623.7     24.43
    1791   24.90     596   623.4     24.41
    1792   24.91     599   623.1     24.47
    1793   24.92     587   622.9     24.23
    1794   24.93     599   621.7     24.47
    1795   24.94     597   621.6     24.43
    1796   24.95     599   621.5     24.47
    1797   24.96     580   621.5     24.08
    1798   24.97     585   621.4     24.19
    1799   24.98     592   621.3     24.33
    1800   24.99     610   621.2     24.70
    1801   25.00     609   621.2     24.68
    1802   25.01     598   621.1     24.45
    1803   25.02     602   621.1     24.54
    1804   25.03     605     621     24.60
    1805   25.04     599     621     24.47
    1806   25.05     595     621     24.39
    1807   25.06     607     621     24.64
    1808   25.07     597     621     24.43
    1809   25.08     596     621     24.41
    1810   25.09     596     621     24.41
    1811   25.10     591     621     24.31
    1812   25.11     598   621.1     24.45
    1813   25.12     599   621.1     24.47
    1814   25.13     598   621.2     24.45
    1815   25.14     607   621.3     24.64
    1816   25.15     600   621.4     24.49
    1817   25.16     594   621.5     24.37
    1818   25.17     598   621.7     24.45
    1819   25.18     594   621.8     24.37
    1820   25.19     588     622     24.25
    1821   25.20     592   622.2     24.33
    1822   25.21     594   622.4     24.37
    1823   25.22     604   622.7     24.58
    1824   25.23     606     623     24.62
    1825   25.24     594   623.3     24.37
    1826   25.25     606   623.6     24.62
    1827   25.26     601     624     24.52
    1828   25.27     588   624.4     24.25
    1829   25.28     599   624.9     24.47
    1830   25.29     603   625.4     24.56
    1831   25.30     598     626     24.45
    1832   25.31     606   626.6     24.62
    1833   25.32     593   627.2     24.35
    1834   25.33     612     628     24.74
    1835   25.34     615   628.8     24.80
    1836   25.35     611   629.7     24.72
    1837   25.36     620   630.6     24.90
    1838   25.37     609   631.7     24.68
    1839   25.38     620   632.8     24.90
    1840   25.39     612   634.1     24.74
    1841   25.40     614   635.5     24.78
    1842   25.41     631     637     25.12
    1843   25.42     622   638.7     24.94
    1844   25.43     615   640.6     24.80
    1845   25.44     627   642.7     25.04
    1846   25.45     635     645     25.20
    1847   25.46     631   647.6     25.12
    1848   25.47     633   650.4     25.16
    1849   25.48     637   653.6     25.24
    1850   25.49     642   657.2     25.34
    1851   25.50     653   661.2     25.55
    1852   25.51     661   665.7     25.71
    1853   25.52     661   670.8     25.71
    1854   25.53     672   676.6     25.92
    1855   25.54     677   684.3     26.02
    1856   25.55     690   691.9     26.27
    1857   25.56     700   700.7     26.46
    1858   25.57     710     711     26.65
    1859   25.58     725     723     26.93
    1860   25.59     749   737.1     27.37
    1861   25.60     787     754     28.05
    1862   25.61     802   774.2     28.32
    1863   25.62     845   798.7     29.07
    1864   25.63     877   828.9     29.61
    1865   25.64     909   866.5     30.15
    1866   25.65     986   914.3     31.40
    1867   25.66    1061   976.7     32.57
    1868   25.67    1159  1061.5     34.04
    1869   25.68    1282  1182.8     35.81
    1870   25.69    1423  1365.9     37.72
    1871   25.70    1664  1652.7     40.79
    1872   25.71    2058  2103.9     45.37
    1873   25.72    2631  2794.9     51.29
    1874   25.73    3629  3798.9     60.24
    1875   25.74    5106    5127     71.46
    1876   25.75    6541  6512.6     80.88
    1877   25.76    7086  7139.3     84.18
    1878   25.77    6318  6383.5     79.49
    1879   25.78    4828  4931.3     69.48
    1880   25.79    3424  3607.2     58.51
    1881   25.80    2436  2635.2     49.36
    1882   25.81    1841  1981.6     42.91
    1883   25.82    1509  1563.6     38.85
    1884   25.83    1313    1302     36.24
    1885   25.84    1162  1135.7     34.09
    1886   25.85    1064  1024.9     32.62
    1887   25.86     987   946.7     31.42
    1888   25.87     913   889.6     30.22
    1889   25.88     872   844.9     29.53
    1890   25.89     837   809.6     28.93
    1891   25.90     810   781.3     28.46
    1892   25.91     794   758.3     28.18
    1893   25.92     759   739.3     27.55
    1894   25.93     730   723.6     27.02
    1895   25.94     731   710.5     27.04
    1896   25.95     710   699.5     26.65
    1897   25.96     710   690.4     26.65
    1898   25.97     673     683     25.94
    1899   25.98     679   677.6     26.06
    1900   25.99     667   675.4     25.83
    1901   26.00     685   679.9     26.17
    1902   26.01     705   697.5     26.55
    1903   26.02     733   733.3     27.07
    1904   26.03     758   780.3     27.53
    1905   26.04     796   808.7     28.21
    1906   26.05     756   786.1     27.50
    1907   26.06     729   733.2     27.00
    1908   26.07     683   685.4     26.13
    1909   26.08     652   655.2     25.53
    1910   26.09     619   639.7     24.88
    1911   26.10     621   631.9     24.92
    1912   26.11     610   627.4     24.70
    1913   26.12     593   624.1     24.35
    1914   26.13     594   621.4     24.37
    1915   26.14     604   619.1     24.58
    1916   26.15     588   617.1     24.25
    1917   26.16     592   615.3     24.33
    1918   26.17     592   613.7     24.33
    1919   26.18     585   612.3     24.19
    1920   26.19     597   610.9     24.43
    1921   26.20     579   609.7     24.06
    1922   26.21     583   608.6     24.15
    1923   26.22     585   607.5     24.19
    1924   26.23     581   605.6     24.10
    1925   26.24     575   604.8     23.98
    1926   26.25     575     604     23.98
    1927   26.26     570   603.3     23.87
    1928   26.27     575   602.6     23.98
    1929   26.28     580   601.9     24.08
    1930   26.29     581   601.3     24.10
    1931   26.30     559   600.7     23.64
    1932   26.31     583   600.1     24.15
    1933   26.32     581   599.6     24.10
    1934   26.33     577   599.1     24.02
    1935   26.34     571   598.7     23.90
    1936   26.35     564   598.2     23.75
    1937   26.36     582   597.8     24.12
    1938   26.37     581   597.4     24.10
    1939   26.38     582   597.1     24.12
    1940   26.39     575   596.7     23.98
    1941   26.40     577   596.4     24.02
    1942   26.41     572   596.1     23.92
    1943   26.42     568   595.9     23.83
    1944   26.43     569   595.7     23.85
    1945   26.44     568   595.5     23.83
    1946   26.45     565   595.3     23.77
    1947   26.46     575   595.1     23.98
    1948   26.47     580     595     24.08
    1949   26.48     575   594.9     23.98
    1950   26.49     576   594.9     24.00
    1951   26.50     578   594.8     24.04
    1952   26.51     570   594.8     23.87
    1953   26.52     580   594.9     24.08
    1954   26.53     574     595     23.96
    1955   26.54     579   595.1     24.06
    1956   26.55     585   595.2     24.19
    1957   26.56     575   595.5     23.98
    1958   26.57     575   595.7     23.98
    1959   26.58     572     596     23.92
    1960   26.59     580   596.4     24.08
    1961   26.60     578   596.9     24.04
    1962   26.61     579   597.4     24.06
    1963   26.62     578     598     24.04
    1964   26.63     577   598.7     24.02
    1965   26.64     577   599.5     24.02
    1966   26.65     587   600.4     24.23
    1967   26.66     577   601.4     24.02
    1968   26.67     584   602.6     24.17
    1969   26.68     574   603.9     23.96
    1970   26.69     583   605.5     24.15
    1971   26.70     584   607.2     24.17
    1972   26.71     592   609.2     24.33
    1973   26.72     598   611.5     24.45
    1974   26.73     610   614.1     24.70
    1975   26.74     602   617.2     24.54
    1976   26.75     616   620.7     24.82
    1977   26.76     625   624.7     25.00
    1978   26.77     641   630.5     25.32
    1979   26.78     646   636.1     25.42
    1980   26.79     653   642.7     25.55
    1981   26.80     650   650.7     25.50
    1982   26.81     662   660.2     25.73
    1983   26.82     700   671.7     26.46
    1984   26.83     704   685.8     26.53
    1985   26.84     717   703.5     26.78
    1986   26.85     760   725.8     27.57
    1987   26.86     791   754.8     28.12
    1988   26.87     834   795.3     28.88
    1989   26.88     894   850.7     29.90
    1990   26.89     975   933.3     31.22
    1991   26.90    1074  1061.5     32.77
    1992   26.91    1240  1261.8     35.21
    1993   26.92    1539  1568.1     39.23
    1994   26.93    1979  2015.2     44.49
    1995   26.94    2658    2618     51.56
    1996   26.95    3376  3293.7     58.10
    1997   26.96    3758  3719.3     61.30
    1998   26.97    3493    3521     59.10
    1999   26.98    2777    2872     52.70
    2000   26.99    2087  2205.6     45.68
    2001   27.00    1550    1692     39.37
    2002   27.01    1236  1336.4     35.16
    2003   27.02    1052  1103.8     32.43
    2004   27.03     952   956.4     30.85
    2005   27.04     843   862.8     29.03
    2006   27.05     803   801.4     28.34
    2007   27.06     769   759.8     27.73
    2008   27.07     733   728.7     27.07
    2009   27.08     710   705.1     26.65
    2010   27.09     692   686.6     26.31
    2011   27.10     675   671.9     25.98
    2012   27.11     657   660.1     25.63
    2013   27.12     651   650.5     25.51
    2014   27.13     648   642.6     25.46
    2015   27.14     631   636.2     25.12
    2016   27.15     643     631     25.36
    2017   27.16     628   626.7     25.06
    2018   27.17     621   623.4     24.92
    2019   27.18     618   620.8     24.86
    2020   27.19     610     619     24.70
    2021   27.20     621   617.9     24.92
    2022   27.21     616   617.7     24.82
    2023   27.22     601   618.3     24.52
    2024   27.23     623   619.8     24.96
    2025   27.24     618   622.6     24.86
    2026   27.25     619   627.1     24.88
    2027   27.26     617   633.9     24.84
    2028   27.27     628   644.3     25.06
    2029   27.28     663   660.8     25.75
    2030   27.29     672   687.2     25.92
    2031   27.30     706   729.1     26.57
    2032   27.31     775   793.7     27.84
    2033   27.32     870   888.1     29.50
    2034   27.33    1025  1015.3     32.02
    2035   27.34    1183  1157.2     34.39
    2036   27.35    1257  1245.2     35.45
    2037   27.36    1198  1201.7     34.61
    2038   27.37    1030  1063.8     32.09
    2039   27.38     879   922.1     29.65
    2040   27.39     771   812.4     27.77
    2041   27.40     695     736     26.36
    2042   27.41     655   685.7     25.59
    2043   27.42     633   653.4     25.16
    2044   27.43     611   632.8     24.72
    2045   27.44     597     619     24.43
    2046   27.45     600   609.3     24.49
    2047   27.46     595   602.1     24.39
    2048   27.47     582   596.5     24.12
    2049   27.48     596     592     24.41
    2050   27.49     571   588.4     23.90
    2051   27.50     583   585.3     24.15
    2052   27.51     572   582.8     23.92
    2053   27.52     559   580.6     23.64
    2054   27.53     563   578.7     23.73
    2055   27.54     560     577     23.66
    2056   27.55     558   576.7     23.62
    2057   27.56     545   575.7     23.35
    2058   27.57     566   574.9     23.79
    2059   27.58     566   574.3     23.79
    2060   27.59     561   574.2     23.69
    2061   27.60     575   576.6     23.98
    2062   27.61     573     581     23.94
    2063   27.62     589   591.9     24.27
    2064   27.63     598   612.2     24.45
    2065   27.64     622   637.6     24.94
    2066   27.65     632   655.2     25.14
    2067   27.66     634   645.9     25.18
    2068   27.67     611   619.3     24.72
    2069   27.68     590   594.6     24.29
    2070   27.69     572   579.1     23.92
    2071   27.70     561   571.4     23.69
    2072   27.71     553     568     23.52
    2073   27.72     559   564.4     23.64
    2074   27.73     553   563.4     23.52
    2075   27.74     544   562.7     23.32
    2076   27.75     549   562.1     23.43
    2077   27.76     546   561.6     23.37
    2078   27.77     540   560.3     23.24
    2079   27.78     540     560     23.24
    2080   27.79     544   559.7     23.32
    2081   27.80     542   559.5     23.28
    2082   27.81     537   559.2     23.17
    2083   27.82     553     559     23.52
    2084   27.83     543   558.8     23.30
    2085   27.84     550   558.6     23.45
    2086   27.85     551   558.4     23.47
    2087   27.86     538   558.2     23.19
    2088   27.87     551     558     23.47
    2089   27.88     552   557.8     23.49
    2090   27.89     534   557.6     23.11
    2091   27.90     534   557.4     23.11
    2092   27.91     530   557.3     23.02
    2093   27.92     543   557.1     23.30
    2094   27.93     558     556     23.62
    2095   27.94     539   555.9     23.22
    2096   27.95     543   555.8     23.30
    2097   27.96     545   555.7     23.35
    2098   27.97     549   555.6     23.43
    2099   27.98     542   555.6     23.28
    2100   27.99     540   555.5     23.24
    2101   28.00     540   555.4     23.24
    2102   28.01     545   555.4     23.35
    2103   28.02     533   555.3     23.09
    2104   28.03     542   555.3     23.28
    2105   28.04     536   555.2     23.15
    2106   28.05     550   555.2     23.45
    2107   28.06     540   555.2     23.24
    2108   28.07     543   555.2     23.30
    2109   28.08     547   555.2     23.39
    2110   28.09     544   555.2     23.32
    2111   28.10     533   555.2     23.09
    2112   28.11     540   555.2     23.24
    2113   28.12     545   555.3     23.35
    2114   28.13     541   555.3     23.26
    2115   28.14     537   555.4     23.17
    2116   28.15     542   555.5     23.28
    2117   28.16     545   555.5     23.35
    2118   28.17     548   555.6     23.41
    2119   28.18     541   555.8     23.26
    2120   28.19     540   555.9     23.24
    2121   28.20     539     556     23.22
    2122   28.21     552   556.2     23.49
    2123   28.22     560   556.4     23.66
    2124   28.23     539   556.6     23.22
    2125   28.24     549   556.8     23.43
    2126   28.25     542   557.1     23.28
    2127   28.26     559   557.3     23.64
    2128   28.27     557   557.6     23.60
    2129   28.28     546   557.9     23.37
    2130   28.29     557   558.3     23.60
    2131   28.30     544   558.7     23.32
    2132   28.31     541   559.1     23.26
    2133   28.32     553   559.5     23.52
    2134   28.33     570     560     23.87
    2135   28.34     556   560.5     23.58
    2136   28.35     563   560.1     23.73
    2137   28.36     562   560.7     23.71
    2138   28.37     560   561.4     23.66
    2139   28.38     561   562.1     23.69
    2140   28.39     557   562.9     23.60
    2141   28.40     556   563.8     23.58
    2142   28.41     561   564.7     23.69
    2143   28.42     567   565.7     23.81
    2144   28.43     564   566.8     23.75
    2145   28.44     566   567.9     23.79
    2146   28.45     575   569.2     23.98
    2147   28.46     574   570.6     23.96
    2148   28.47     574   572.1     23.96
    2149   28.48     590   573.7     24.29
    2150   28.49     578   575.5     24.04
    2151   28.50     593   577.4     24.35
    2152   28.51     584   579.5     24.17
    2153   28.52     587   581.9     24.23
    2154   28.53     605   584.4     24.60
    2155   28.54     595   587.2     24.39
    2156   28.55     605   590.3     24.60
    2157   28.56     613   594.9     24.76
    2158   28.57     623     599     24.96
    2159   28.58     635   603.7     25.20
    2160   28.59     649   609.3     25.48
    2161   28.60     669   616.1     25.87
    2162   28.61     659   624.7     25.67
    2163   28.62     666   635.4     25.81
    2164   28.63     669   648.2     25.87
    2165   28.64     691   662.6     26.29
    2166   28.65     726   677.1     26.94
    2167   28.66     736   689.9     27.13
    2168   28.67     758   700.3     27.53
    2169   28.68     765   710.2     27.66
    2170   28.69     787   722.1     28.05
    2171   28.70     815   738.1     28.55
    2172   28.71     854   759.5     29.22
    2173   28.72     890   787.3     29.83
    2174   28.73     943   822.9     30.71
    2175   28.74     996     868     31.56
    2176   28.75    1070   925.4     32.71
    2177   28.76    1124  1000.1     33.53
    2178   28.77    1249    1100     35.34
    2179   28.78    1392  1242.5     37.31
    2180   28.79    1575  1453.9     39.69
    2181   28.80    1880  1778.2     43.36
    2182   28.81    2300  2278.7     47.96
    2183   28.82    2965  3034.2     54.45
    2184   28.83    4148  4124.7     64.40
    2185   28.84    5744  5585.8     75.79
    2186   28.85    7594  7240.4     87.14
    2187   28.86    8614    8374     92.81
    2188   28.87    8001  8068.1     89.45
    2189   28.88    6364  6567.3     79.77
    2190   28.89    4654  4904.8     68.22
    2191   28.90    3245  3573.9     56.96
    2192   28.91    2370  2627.3     48.68
    2193   28.92    1878  1993.4     43.34
    2194   28.93    1556  1583.9     39.45
    2195   28.94    1346  1321.5     36.69
    2196   28.95    1218  1149.3     34.90
    2197   28.96    1113  1030.9     33.36
    2198   28.97    1029   945.1     32.08
    2199   28.98     975     880     31.22
    2200   28.99     908   829.1     30.13
    2201   29.00     864   788.4     29.39
    2202   29.01     817   755.3     28.58
    2203   29.02     792   728.1     28.14
    2204   29.03     773   705.4     27.80
    2205   29.04     736   686.3     27.13
    2206   29.05     714     670     26.72
    2207   29.06     692   656.1     26.31
    2208   29.07     682   644.1     26.12
    2209   29.08     666   633.6     25.81
    2210   29.09     653   624.4     25.55
    2211   29.10     641   616.4     25.32
    2212   29.11     636   610.2     25.22
    2213   29.12     626   603.9     25.02
    2214   29.13     630   598.3     25.10
    2215   29.14     614   593.2     24.78
    2216   29.15     590   588.6     24.29
    2217   29.16     601   584.5     24.52
    2218   29.17     595   580.7     24.39
    2219   29.18     582   577.3     24.12
    2220   29.19     569   574.2     23.85
    2221   29.20     571   571.3     23.90
    2222   29.21     577   568.7     24.02
    2223   29.22     568   566.3     23.83
    2224   29.23     568   564.1     23.83
    2225   29.24     557     562     23.60
    2226   29.25     569   560.1     23.85
    2227   29.26     556   558.3     23.58
    2228   29.27     557   556.7     23.60
    2229   29.28     567   555.1     23.81
    2230   29.29     559   553.7     23.64
    2231   29.30     554   552.3     23.54
    2232   29.31     553   551.1     23.52
    2233   29.32     553   549.9     23.52
    2234   29.33     558   548.8     23.62
    2235   29.34     554   547.7     23.54
    2236   29.35     541   546.7     23.26
    2237   29.36     538   545.8     23.19
    2238   29.37     555   544.9     23.56
    2239   29.38     540   544.1     23.24
    2240   29.39     539   543.3     23.22
    2241   29.40     539   542.6     23.22
    2242   29.41     539   541.9     23.22
    2243   29.42     543   541.3     23.30
    2244   29.43     542   540.6     23.28
    2245   29.44     543   540.1     23.30
    2246   29.45     536   539.5     23.15
    2247   29.46     543     539     23.30
    2248   29.47     536   538.5     23.15
    2249   29.48     539   538.1     23.22
    2250   29.49     543   537.6     23.30
    2251   29.50     529   537.3     23.00
    2252   29.51     527   536.9     22.96
    2253   29.52     531   536.6     23.04
    2254   29.53     535   536.2     23.13
    2255   29.54     537     536     23.17
    2256   29.55     539   535.7     23.22
    2257   29.56     537   535.5     23.17
    2258   29.57     539   535.3     23.22
    2259   29.58     538   535.2     23.19
    2260   29.59     544     535     23.32
    2261   29.60     536     535     23.15
    2262   29.61     551   534.9     23.47
    2263   29.62     540   534.9     23.24
    2264   29.63     534     535     23.11
    2265   29.64     538     535     23.19
    2266   29.65     548   535.2     23.41
    2267   29.66     543   535.4     23.30
    2268   29.67     551   535.7     23.47
    2269   29.68     540     536     23.24
    2270   29.69     545   536.4     23.35
    2271   29.70     556   536.9     23.58
    2272   29.71     541   537.6     23.26
    2273   29.72     549   538.3     23.43
    2274   29.73     549   539.2     23.43
    2275   29.74     549   540.3     23.43
    2276   29.75     558   541.6     23.62
    2277   29.76     555   543.2     23.56
    2278   29.77     555     545     23.56
    2279   29.78     556   547.2     23.58
    2280   29.79     565   549.9     23.77
    2281   29.80     556   553.2     23.58
    2282   29.81     577   557.2     24.02
    2283   29.82     583   562.2     24.15
    2284   29.83     580   568.4     24.08
    2285   29.84     588   576.4     24.25
    2286   29.85     608     587     24.66
    2287   29.86     621   602.5     24.92
    2288   29.87     631   623.4     25.12
    2289   29.88     679   654.7     26.06
    2290   29.89     708   702.9     26.61
    2291   29.90     757   776.4     27.51
    2292   29.91     869   885.5     29.48
    2293   29.92    1017  1039.2     31.89
    2294   29.93    1226  1237.3     35.01
    2295   29.94    1488  1442.6     38.57
    2296   29.95    1575  1547.2     39.69
    2297   29.96    1473  1459.5     38.38
    2298   29.97    1271  1252.9     35.65
    2299   29.98    1025  1047.6     32.02
    2300   29.99     858   888.1     29.29
    2301   30.00     756   775.5     27.50
    2302   30.01     684   700.3     26.15
    2303   30.02     640   651.5     25.30
    2304   30.03     616   619.9     24.82
    2305   30.04     607     599     24.64
    2306   30.05     605   584.5     24.60
    2307   30.06     604   573.9     24.58
    2308   30.07     577     567     24.02
    2309   30.08     574     561     23.96
    2310   30.09     564   556.4     23.75
    2311   30.10     559   553.2     23.64
    2312   30.11     557   551.4     23.60
    2313   30.12     568   552.2     23.83
    2314   30.13     573   557.4     23.94
    2315   30.14     570   567.9     23.87
    2316   30.15     586   581.1     24.21
    2317   30.16     599   587.5     24.47
    2318   30.17     598     580     24.45
    2319   30.18     580   566.1     24.08
    2320   30.19     574   555.2     23.96
    2321   30.20     561   549.8     23.69
    2322   30.21     564   549.3     23.75
    2323   30.22     571   552.1     23.90
    2324   30.23     559   558.1     23.64
    2325   30.24     572   568.3     23.92
    2326   30.25     584   584.6     24.17
    2327   30.26     615   608.9     24.80
    2328   30.27     640   645.8     25.30
    2329   30.28     696   695.8     26.38
    2330   30.29     774   754.5     27.82
    2331   30.30     809   800.9     28.44
    2332   30.31     815   801.2     28.55
    2333   30.32     747   753.4     27.33
    2334   30.33     690   692.4     26.27
    2335   30.34     636   640.7     25.22
    2336   30.35     589   602.8     24.27
    2337   30.36     578   576.6     24.04
    2338   30.37     564   559.4     23.75
    2339   30.38     549   548.1     23.43
    2340   30.39     545   540.6     23.35
    2341   30.40     537   535.4     23.17
    2342   30.41     528   531.7     22.98
    2343   30.42     522   528.8     22.85
    2344   30.43     530   526.5     23.02
    2345   30.44     514   524.6     22.67
    2346   30.45     512   523.1     22.63
    2347   30.46     508   521.8     22.54
    2348   30.47     529   520.7     23.00
    2349   30.48     530   519.7     23.02
    2350   30.49     523   518.8     22.87
    2351   30.50     510   518.1     22.58
    2352   30.51     516   517.4     22.72
    2353   30.52     517   516.8     22.74
    2354   30.53     507   516.3     22.52
    2355   30.54     528   515.8     22.98
    2356   30.55     525   515.3     22.91
    2357   30.56     505   514.9     22.47
    2358   30.57     517   515.5     22.74
    2359   30.58     517   515.1     22.74
    2360   30.59     521   514.8     22.83
    2361   30.60     504   514.5     22.45
    2362   30.61     510   514.2     22.58
    2363   30.62     505   513.9     22.47
    2364   30.63     525   513.7     22.91
    2365   30.64     514   513.4     22.67
    2366   30.65     503   513.2     22.43
    2367   30.66     508   512.9     22.54
    2368   30.67     511   512.7     22.61
    2369   30.68     511   512.5     22.61
    2370   30.69     515   512.3     22.69
    2371   30.70     514   512.2     22.67
    2372   30.71     513     512     22.65
    2373   30.72     511   511.8     22.61
    2374   30.73     521   511.6     22.83
    2375   30.74     512   511.5     22.63
    2376   30.75     527   510.3     22.96
    2377   30.76     516   510.2     22.72
    2378   30.77     519   510.1     22.78
    2379   30.78     512     509     22.63
    2380   30.79     505     509     22.47
    2381   30.80     504   508.9     22.45
    2382   30.81     501   508.8     22.38
    2383   30.82     496   508.8     22.27
    2384   30.83     499   508.7     22.34
    2385   30.84     505   508.6     22.47
    2386   30.85     510   508.6     22.58
    2387   30.86     511   508.5     22.61
    2388   30.87     516   507.2     22.72
    2389   30.88     519   507.1     22.78
    2390   30.89     496   507.1     22.27
    2391   30.90     514     507     22.67
    2392   30.91     494     507     22.23
    2393   30.92     503     507     22.43
    2394   30.93     501   506.9     22.38
    2395   30.94     510   506.9     22.58
    2396   30.95     509   506.9     22.56
    2397   30.96     504   506.8     22.45
    2398   30.97     498   506.8     22.32
    2399   30.98     506   506.8     22.49
    2400   30.99     511   506.8     22.61
    2401   31.00     519   506.8     22.78
    2402   31.01     513   506.8     22.65
    2403   31.02     506   506.8     22.49
    2404   31.03     504   506.8     22.45
    2405   31.04     510   506.8     22.58
    2406   31.05     519   506.8     22.78
    2407   31.06     511   506.8     22.61
    2408   31.07     504   506.8     22.45
    2409   31.08     511   506.8     22.61
    2410   31.09     513   506.8     22.65
    2411   31.10     519   506.9     22.78
    2412   31.11     514   506.9     22.67
    2413   31.12     505     508     22.47
    2414   31.13     512   508.2     22.63
    2415   31.14     515   508.4     22.69
    2416   31.15     516   508.7     22.72
    2417   31.16     500     509     22.36
    2418   31.17     513   509.4     22.65
    2419   31.18     507   509.8     22.52
    2420   31.19     518   510.4     22.76
    2421   31.20     526   511.2     22.93
    2422   31.21     529   512.4     23.00
    2423   31.22     533   514.4     23.09
    2424   31.23     536   517.9     23.15
    2425   31.24     529   523.8     23.00
    2426   31.25     556     533     23.58
    2427   31.26     562   545.8     23.71
    2428   31.27     565   561.3     23.77
    2429   31.28     578   576.5     24.04
    2430   31.29     596   585.9     24.41
    2431   31.30     590   584.7     24.29
    2432   31.31     560   573.7     23.66
    2433   31.32     566   558.7     23.79
    2434   31.33     568   544.4     23.83
    2435   31.34     553   533.2     23.52
    2436   31.35     549   525.7     23.43
    2437   31.36     553   521.3     23.52
    2438   31.37     537   519.2     23.17
    2439   31.38     535   518.3     23.13
    2440   31.39     525   518.2     22.91
    2441   31.40     524   518.5     22.89
    2442   31.41     538     519     23.19
    2443   31.42     534   519.8     23.11
    2444   31.43     533   520.8     23.09
    2445   31.44     533     522     23.09
    2446   31.45     544   523.5     23.32
    2447   31.46     534   526.2     23.11
    2448   31.47     541   528.3     23.26
    2449   31.48     547     530     23.39
    2450   31.49     552   533.1     23.49
    2451   31.50     557   536.8     23.60
    2452   31.51     572   541.3     23.92
    2453   31.52     575     547     23.98
    2454   31.53     586   555.1     24.21
    2455   31.54     604   568.1     24.58
    2456   31.55     623   589.4     24.96
    2457   31.56     645   620.3     25.40
    2458   31.57     687   654.5     26.21
    2459   31.58     698     676     26.42
    2460   31.59     719   679.8     26.81
    2461   31.60     730   684.9     27.02
    2462   31.61     749   708.6     27.37
    2463   31.62     795   761.1     28.20
    2464   31.63     859   851.3     29.31
    2465   31.64     960   990.8     30.98
    2466   31.65    1145  1193.9     33.84
    2467   31.66    1426    1471     37.76
    2468   31.67    1811  1807.9     42.56
    2469   31.68    2172  2111.3     46.60
    2470   31.69    2244  2192.6     47.37
    2471   31.70    2002  1973.6     44.74
    2472   31.71    1645  1626.3     40.56
    2473   31.72    1285  1308.8     35.85
    2474   31.73    1028  1067.1     32.06
    2475   31.74     875   897.2     29.58
    2476   31.75     782   783.1     27.96
    2477   31.76     720   708.4     26.83
    2478   31.77     671   659.5     25.90
    2479   31.78     647   626.6     25.44
    2480   31.79     621   603.4     24.92
    2481   31.80     602   586.2     24.54
    2482   31.81     601     573     24.52
    2483   31.82     589   562.6     24.27
    2484   31.83     578   554.1     24.04
    2485   31.84     556   547.2     23.58
    2486   31.85     572   541.5     23.92
    2487   31.86     560   536.6     23.66
    2488   31.87     555   532.6     23.56
    2489   31.88     544   529.1     23.32
    2490   31.89     538     526     23.19
    2491   31.90     544   523.4     23.32
    2492   31.91     540   521.1     23.24
    2493   31.92     533   519.1     23.09
    2494   31.93     516   517.4     22.72
    2495   31.94     534   515.8     23.11
    2496   31.95     528   514.4     22.98
    2497   31.96     532   514.1     23.07
    2498   31.97     517   515.1     22.74
    2499   31.98     525   514.2     22.91
    2500   31.99     520   513.5     22.80
    2501   32.00     511     513     22.61
    2502   32.01     526   512.5     22.93
    2503   32.02     527   512.2     22.96
    2504   32.03     514   512.1     22.67
    2505   32.04     526   512.3     22.93
    2506   32.05     513   513.1     22.65
    2507   32.06     518   514.8     22.76
    2508   32.07     525   518.3     22.91
    2509   32.08     524   524.4     22.89
    2510   32.09     534   533.7     23.11
    2511   32.10     542   545.9     23.28
    2512   32.11     557   559.4     23.60
    2513   32.12     550   570.3     23.45
    2514   32.13     563   573.5     23.73
    2515   32.14     565     567     23.77
    2516   32.15     556   554.4     23.58
    2517   32.16     543   540.6     23.30
    2518   32.17     533   528.7     23.09
    2519   32.18     522     520     22.85
    2520   32.19     525   514.3     22.91
    2521   32.20     511     511     22.61
    2522   32.21     510   509.1     22.58
    2523   32.22     517   508.1     22.74
    2524   32.23     510   507.4     22.58
    2525   32.24     504     507     22.45
    2526   32.25     515   506.7     22.69
    2527   32.26     507   506.5     22.52
    2528   32.27     504   506.4     22.45
    2529   32.28     510   506.4     22.58
    2530   32.29     516   506.4     22.72
    2531   32.30     504   505.5     22.45
    2532   32.31     517   507.1     22.74
    2533   32.32     515   507.3     22.69
    2534   32.33     514   507.6     22.67
    2535   32.34     520     508     22.80
    2536   32.35     518   508.4     22.76
    2537   32.36     499   508.8     22.34
    2538   32.37     517   509.3     22.74
    2539   32.38     518   509.9     22.76
    2540   32.39     522   510.5     22.85
    2541   32.40     500   511.2     22.36
    2542   32.41     519     512     22.78
    2543   32.42     506   512.9     22.49
    2544   32.43     514   513.9     22.67
    2545   32.44     518     515     22.76
    2546   32.45     516   516.3     22.72
    2547   32.46     524   517.8     22.89
    2548   32.47     530   519.5     23.02
    2549   32.48     534   521.4     23.11
    2550   32.49     539   523.7     23.22
    2551   32.50     533   526.3     23.09
    2552   32.51     541   529.4     23.26
    2553   32.52     549     533     23.43
    2554   32.53     558   537.3     23.62
    2555   32.54     556   542.4     23.58
    2556   32.55     573   548.7     23.94
    2557   32.56     572   556.3     23.92
    2558   32.57     580   565.9     24.08
    2559   32.58     609   578.1     24.68
    2560   32.59     624   594.2     24.98
    2561   32.60     631   616.4     25.12
    2562   32.61     669   648.3     25.87
    2563   32.62     695     696     26.36
    2564   32.63     763     768     27.62
    2565   32.64     850   875.6     29.15
    2566   32.65     986  1031.3     31.40
    2567   32.66    1191    1245     34.51
    2568   32.67    1486  1512.9     38.55
    2569   32.68    1791  1776.3     42.32
    2570   32.69    1935  1896.1     43.99
    2571   32.70    1826    1771     42.73
    2572   32.71    1526  1500.3     39.06
    2573   32.72    1202    1230     34.67
    2574   32.73     982  1016.6     31.34
    2575   32.74     841     863     29.00
    2576   32.75     740   758.2     27.20
    2577   32.76     688   688.8     26.23
    2578   32.77     653   643.4     25.55
    2579   32.78     628     613     25.06
    2580   32.79     612     591     24.74
    2581   32.80     597   575.8     24.43
    2582   32.81     578   564.3     24.04
    2583   32.82     571   555.3     23.90
    2584   32.83     572   548.2     23.92
    2585   32.84     561   542.5     23.69
    2586   32.85     560     538     23.66
    2587   32.86     553   534.3     23.52
    2588   32.87     544   531.5     23.32
    2589   32.88     547   529.2     23.39
    2590   32.89     550   527.6     23.45
    2591   32.90     543   526.6     23.30
    2592   32.91     544   526.2     23.32
    2593   32.92     544   526.6     23.32
    2594   32.93     535     528     23.13
    2595   32.94     543   530.8     23.30
    2596   32.95     550   535.8     23.45
    2597   32.96     542   544.1     23.28
    2598   32.97     552   557.1     23.49
    2599   32.98     560   576.1     23.66
    2600   32.99     604   602.2     24.58
    2601   33.00     641     634     25.32
    2602   33.01     667   662.8     25.83
    2603   33.02     677   671.2     26.02
    2604   33.03     668     651     25.85
    2605   33.04     623   617.4     24.96
    2606   33.05     584   585.9     24.17
    2607   33.06     560   561.5     23.66
    2608   33.07     532     544     23.07
    2609   33.08     529   532.1     23.00
    2610   33.09     521   524.1     22.83
    2611   33.10     517   518.8     22.74
    2612   33.11     517   515.1     22.74
    2613   33.12     517   512.5     22.74
    2614   33.13     513   510.5     22.65
    2615   33.14     514     509     22.67
    2616   33.15     519   507.8     22.78
    2617   33.16     514   506.7     22.67
    2618   33.17     501   505.9     22.38
    2619   33.18     510   505.2     22.58
    2620   33.19     501   504.6     22.38
    2621   33.20     494   504.1     22.23
    2622   33.21     504   503.6     22.45
    2623   33.22     501   503.3     22.38
    2624   33.23     511   502.9     22.61
    2625   33.24     513   502.6     22.65
    2626   33.25     513   502.4     22.65
    2627   33.26     504   502.2     22.45
    2628   33.27     494     502     22.23
    2629   33.28     498   501.8     22.32
    2630   33.29     499   501.7     22.34
    2631   33.30     496   501.6     22.27
    2632   33.31     496   501.5     22.27
    2633   33.32     486   501.4     22.05
    2634   33.33     510   501.3     22.58
    2635   33.34     491   501.2     22.16
    2636   33.35     492   501.2     22.18
    2637   33.36     500   501.2     22.36
    2638   33.37     500   500.2     22.36
    2639   33.38     495   500.2     22.25
    2640   33.39     506   500.3     22.49
    2641   33.40     493   500.4     22.20
    2642   33.41     498   498.5     22.32
    2643   33.42     496   498.6     22.27
    2644   33.43     501   498.8     22.38
    2645   33.44     512   498.9     22.63
    2646   33.45     506   499.1     22.49
    2647   33.46     502   499.2     22.41
    2648   33.47     503   499.4     22.43
    2649   33.48     515   499.6     22.69
    2650   33.49     502   499.7     22.41
    2651   33.50     513   499.9     22.65
    2652   33.51     516   500.1     22.72
    2653   33.52     505   500.3     22.47
    2654   33.53     513   500.5     22.65
    2655   33.54     508   500.7     22.54
    2656   33.55     507     501     22.52
    2657   33.56     499   501.2     22.34
    2658   33.57     500   501.4     22.36
    2659   33.58     503   501.7     22.43
    2660   33.59     510     502     22.58
    2661   33.60     509   502.3     22.56
    2662   33.61     513   502.6     22.65
    2663   33.62     506   502.9     22.49
    2664   33.63     506   503.2     22.49
    2665   33.64     513   503.5     22.65
    2666   33.65     510   503.9     22.58
    2667   33.66     505   504.3     22.47
    2668   33.67     515   504.7     22.69
    2669   33.68     503   505.1     22.43
    2670   33.69     503   505.5     22.43
    2671   33.70     510     506     22.58
    2672   33.71     510   506.5     22.58
    2673   33.72     509     508     22.56
    2674   33.73     512   508.7     22.63
    2675   33.74     514   509.6     22.67
    2676   33.75     521   510.6     22.83
    2677   33.76     527     512     22.96
    2678   33.77     522   514.1     22.85
    2679   33.78     542   518.3     23.28
    2680   33.79     536   526.7     23.15
    2681   33.80     563     541     23.73
    2682   33.81     579     559     24.06
    2683   33.82     582   570.8     24.12
    2684   33.83     585   565.3     24.19
    2685   33.84     569   549.7     23.85
    2686   33.85     557   535.6     23.60
    2687   33.86     538   527.5     23.19
    2688   33.87     552   524.4     23.49
    2689   33.88     542   523.9     23.28
    2690   33.89     547   524.4     23.39
    2691   33.90     546   525.5     23.37
    2692   33.91     551   526.9     23.47
    2693   33.92     545   528.4     23.35
    2694   33.93     548   529.3     23.41
    2695   33.94     558   531.4     23.62
    2696   33.95     560   533.8     23.66
    2697   33.96     552   536.3     23.49
    2698   33.97     554     539     23.54
    2699   33.98     557     542     23.60
    2700   33.99     572   545.3     23.92
    2701   34.00     577   548.9     24.02
    2702   34.01     590   552.9     24.29
    2703   34.02     603   557.3     24.56
    2704   34.03     596   562.2     24.41
    2705   34.04     602   567.6     24.54
    2706   34.05     620   573.7     24.90
    2707   34.06     628   580.6     25.06
    2708   34.07     646   588.3     25.42
    2709   34.08     666   597.1     25.81
    2710   34.09     672   607.1     25.92
    2711   34.10     678   618.6     26.04
    2712   34.11     711   631.9     26.66
    2713   34.12     739   647.3     27.18
    2714   34.13     741   665.4     27.22
    2715   34.14     784   686.7     28.00
    2716   34.15     821   712.2     28.65
    2717   34.16     864   742.9     29.39
    2718   34.17     902   780.3     30.03
    2719   34.18     966   826.8     31.08
    2720   34.19    1044   885.8     32.31
    2721   34.20    1130   963.1     33.62
    2722   34.21    1233  1068.4     35.11
    2723   34.22    1366  1218.3     36.96
    2724   34.23    1564  1439.5     39.55
    2725   34.24    1849    1771     43.00
    2726   34.25    2276  2263.2     47.71
    2727   34.26    2881  2973.6     53.67
    2728   34.27    3861  3953.1     62.14
    2729   34.28    5192  5199.7     72.06
    2730   34.29    6763  6520.8     82.24
    2731   34.30    7454  7337.8     86.34
    2732   34.31    7019  7038.5     83.78
    2733   34.32    5711  5847.4     75.57
    2734   34.33    4290  4495.6     65.50
    2735   34.34    3053  3368.3     55.25
    2736   34.35    2283  2532.3     47.78
    2737   34.36    1782  1946.2     42.21
    2738   34.37    1487  1551.1     38.56
    2739   34.38    1296  1289.1     36.00
    2740   34.39    1168  1114.4     34.18
    2741   34.40    1064   994.2     32.62
    2742   34.41     995   907.9     31.54
    2743   34.42     936     843     30.59
    2744   34.43     879   792.6     29.65
    2745   34.44     843   752.3     29.03
    2746   34.45     799   719.6     28.27
    2747   34.46     770   692.6     27.75
    2748   34.47     730   670.1     27.02
    2749   34.48     706   651.2     26.57
    2750   34.49     696   635.1     26.38
    2751   34.50     677   621.3     26.02
    2752   34.51     655   609.4     25.59
    2753   34.52     651   599.1     25.51
    2754   34.53     642     590     25.34
    2755   34.54     630   582.1     25.10
    2756   34.55     608   575.1     24.66
    2757   34.56     602   568.9     24.54
    2758   34.57     586   563.4     24.21
    2759   34.58     578   558.4     24.04
    2760   34.59     589     554     24.27
    2761   34.60     582     550     24.12
    2762   34.61     563   547.4     23.73
    2763   34.62     567   544.2     23.81
    2764   34.63     557   541.2     23.60
    2765   34.64     555   538.6     23.56
    2766   34.65     541   536.1     23.26
    2767   34.66     538   533.9     23.19
    2768   34.67     532   531.9     23.07
    2769   34.68     539     530     23.22
    2770   34.69     544   528.3     23.32
    2771   34.70     531   526.8     23.04
    2772   34.71     534   525.4     23.11
    2773   34.72     520   524.1     22.80
    2774   34.73     524   522.9     22.89
    2775   34.74     525   521.8     22.91
    2776   34.75     516   520.8     22.72
    2777   34.76     527   519.9     22.96
    2778   34.77     515   519.1     22.69
    2779   34.78     516   518.3     22.72
    2780   34.79     506   517.7     22.49
    2781   34.80     517   517.1     22.74
    2782   34.81     534   516.5     23.11
    2783   34.82     520   516.1     22.80
    2784   34.83     521   515.7     22.83
    2785   34.84     521   515.3     22.83
    2786   34.85     522   515.1     22.85
    2787   34.86     528   514.9     22.98
    2788   34.87     516   514.7     22.72
    2789   34.88     507   514.7     22.52
    2790   34.89     529   514.7     23.00
    2791   34.90     516   514.7     22.72
    2792   34.91     526   514.9     22.93
    2793   34.92     518   515.1     22.76
    2794   34.93     511   515.4     22.61
    2795   34.94     519   515.9     22.78
    2796   34.95     517   516.4     22.74
    2797   34.96     520     517     22.80
    2798   34.97     512   517.8     22.63
    2799   34.98     517   518.7     22.74
    2800   34.99     521   519.8     22.83
    2801   35.00     524     521     22.89
    2802   35.01     540   522.5     23.24
    2803   35.02     531   524.2     23.04
    2804   35.03     521   526.3     22.83
    2805   35.04     543   528.7     23.30
    2806   35.05     540   532.9     23.24
    2807   35.06     563   537.1     23.73
    2808   35.07     576   543.2     24.00
    2809   35.08     583   552.4     24.15
    2810   35.09     597   564.8     24.43
    2811   35.10     619   578.5     24.88
    2812   35.11     616   588.5     24.82
    2813   35.12     614     594     24.78
    2814   35.13     647     601     25.44
    2815   35.14     658   614.6     25.65
    2816   35.15     679     638     26.06
    2817   35.16     715   674.6     26.74
    2818   35.17     754   731.5     27.46
    2819   35.18     825   814.6     28.72
    2820   35.19     940   937.8     30.66
    2821   35.20    1095  1111.9     33.09
    2822   35.21    1352  1344.7     36.77
    2823   35.22    1700  1625.5     41.23
    2824   35.23    1971  1885.1     44.40
    2825   35.24    2022    1982     44.97
    2826   35.25    1832  1838.2     42.80
    2827   35.26    1520  1565.5     38.99
    2828   35.27    1227  1298.8     35.03
    2829   35.28    1009  1087.7     31.76
    2830   35.29     878   931.9     29.63
    2831   35.30     769     819     27.73
    2832   35.31     715   737.4     26.74
    2833   35.32     684   679.2     26.15
    2834   35.33     641   637.8     25.32
    2835   35.34     634   608.4     25.18
    2836   35.35     616   587.3     24.82
    2837   35.36     590   571.8     24.29
    2838   35.37     580   560.2     24.08
    2839   35.38     563   551.1     23.73
    2840   35.39     556   543.9     23.58
    2841   35.40     550     538     23.45
    2842   35.41     540     533     23.24
    2843   35.42     537   528.8     23.17
    2844   35.43     531   524.4     23.04
    2845   35.44     515   521.4     22.69
    2846   35.45     524   518.9     22.89
    2847   35.46     526   516.6     22.93
    2848   35.47     523   514.7     22.87
    2849   35.48     523   512.9     22.87
    2850   35.49     509   511.4     22.56
    2851   35.50     504     510     22.45
    2852   35.51     500   508.8     22.36
    2853   35.52     506   507.7     22.49
    2854   35.53     513   506.6     22.65
    2855   35.54     506   505.7     22.49
    2856   35.55     508   504.9     22.54
    2857   35.56     504   504.1     22.45
    2858   35.57     499   503.4     22.34
    2859   35.58     496   502.8     22.27
    2860   35.59     494   502.2     22.23
    2861   35.60     493   501.7     22.20
    2862   35.61     504   501.1     22.45
    2863   35.62     498   500.7     22.32
    2864   35.63     499   500.2     22.34
    2865   35.64     498   499.8     22.32
    2866   35.65     486   499.5     22.05
    2867   35.66     488   499.1     22.09
    2868   35.67     495   498.8     22.25
    2869   35.68     500   498.4     22.36
    2870   35.69     478   498.2     21.86
    2871   35.70     482   497.9     21.95
    2872   35.71     490   497.6     22.14
    2873   35.72     490   497.4     22.14
    2874   35.73     496   497.1     22.27
    2875   35.74     487   496.9     22.07
    2876   35.75     496   496.7     22.27
    2877   35.76     489   496.5     22.11
    2878   35.77     492   496.3     22.18
    2879   35.78     487   496.1     22.07
    2880   35.79     494     496     22.23
    2881   35.80     495   495.8     22.25
    2882   35.81     497   495.6     22.29
    2883   35.82     496   495.5     22.27
    2884   35.83     495   495.3     22.25
    2885   35.84     486   495.2     22.05
    2886   35.85     484   495.1     22.00
    2887   35.86     487     494     22.07
    2888   35.87     499   493.9     22.34
    2889   35.88     479   493.8     21.89
    2890   35.89     490   493.7     22.14
    2891   35.90     496   493.6     22.27
    2892   35.91     492   493.5     22.18
    2893   35.92     490   493.5     22.14
    2894   35.93     482   493.4     21.95
    2895   35.94     486   493.3     22.05
    2896   35.95     490   493.3     22.14
    2897   35.96     477   493.2     21.84
    2898   35.97     485   493.1     22.02
    2899   35.98     484   493.1     22.00
    2900   35.99     486     493     22.05
    2901   36.00     480   492.9     21.91
    2902   36.01     486   492.9     22.05
    2903   36.02     470   492.8     21.68
    2904   36.03     475   492.8     21.79
    2905   36.04     473   492.7     21.75
    2906   36.05     476   493.7     21.82
    2907   36.06     492   493.7     22.18
    2908   36.07     491   493.6     22.16
    2909   36.08     486   493.6     22.05
    2910   36.09     479   493.6     21.89
    2911   36.10     479   493.6     21.89
    2912   36.11     486   493.6     22.05
    2913   36.12     486   492.6     22.05
    2914   36.13     478   492.6     21.86
    2915   36.14     473   492.7     21.75
    2916   36.15     482   492.7     21.95
    2917   36.16     483   492.7     21.98
    2918   36.17     476   492.8     21.82
    2919   36.18     471   492.8     21.70
    2920   36.19     491   492.8     22.16
    2921   36.20     485   492.9     22.02
    2922   36.21     496   492.9     22.27
    2923   36.22     494   492.9     22.23
    2924   36.23     489     493     22.11
    2925   36.24     476   493.1     21.82
    2926   36.25     488   493.1     22.09
    2927   36.26     487   493.2     22.07
    2928   36.27     492   493.2     22.18
    2929   36.28     477   493.3     21.84
    2930   36.29     487   493.4     22.07
    2931   36.30     489   493.5     22.11
    2932   36.31     488   492.3     22.09
    2933   36.32     484   492.4     22.00
    2934   36.33     483   492.5     21.98
    2935   36.34     487   492.7     22.07
    2936   36.35     481   492.8     21.93
    2937   36.36     484     493     22.00
    2938   36.37     486   493.1     22.05
    2939   36.38     469   493.3     21.66
    2940   36.39     480   493.5     21.91
    2941   36.40     474   493.7     21.77
    2942   36.41     482   493.9     21.95
    2943   36.42     491   494.2     22.16
    2944   36.43     496   494.5     22.27
    2945   36.44     494   494.8     22.23
    2946   36.45     494   495.1     22.23
    2947   36.46     498   495.5     22.32
    2948   36.47     485   495.9     22.02
    2949   36.48     489   496.3     22.11
    2950   36.49     486   496.8     22.05
    2951   36.50     485   497.4     22.02
    2952   36.51     501     498     22.38
    2953   36.52     499   498.7     22.34
    2954   36.53     491   499.5     22.16
    2955   36.54     486   500.4     22.05
    2956   36.55     494   501.5     22.23
    2957   36.56     496   502.7     22.27
    2958   36.57     505   504.1     22.47
    2959   36.58     489   505.8     22.11
    2960   36.59     507   507.7     22.52
    2961   36.60     505   510.1     22.47
    2962   36.61     506   512.9     22.49
    2963   36.62     510   516.3     22.58
    2964   36.63     521   520.6     22.83
    2965   36.64     527     526     22.96
    2966   36.65     535   533.1     23.13
    2967   36.66     552   542.8     23.49
    2968   36.67     560   556.6     23.66
    2969   36.68     576   576.8     24.00
    2970   36.69     602   606.6     24.54
    2971   36.70     622   650.4     24.94
    2972   36.71     683   712.6     26.13
    2973   36.72     786   797.1     28.04
    2974   36.73     910   903.3     30.17
    2975   36.74    1039  1015.3     32.23
    2976   36.75    1113  1086.7     33.36
    2977   36.76    1063  1067.3     32.60
    2978   36.77     949   970.7     30.81
    2979   36.78     833   855.5     28.86
    2980   36.79     714   756.4     26.72
    2981   36.80     641   681.1     25.32
    2982   36.81     594   627.2     24.37
    2983   36.82     562   590.2     23.71
    2984   36.83     555   565.3     23.56
    2985   36.84     539   548.5     23.22
    2986   36.85     535   536.9     23.13
    2987   36.86     524   528.7     22.89
    2988   36.87     531   522.5     23.04
    2989   36.88     515   517.7     22.69
    2990   36.89     523   513.9     22.87
    2991   36.90     517   510.9     22.74
    2992   36.91     510   508.3     22.58
    2993   36.92     507   506.2     22.52
    2994   36.93     515   504.4     22.69
    2995   36.94     504   502.9     22.45
    2996   36.95     500   501.6     22.36
    2997   36.96     497   500.5     22.29
    2998   36.97     494   499.5     22.23
    2999   36.98     492   498.6     22.18
    3000   36.99     503   497.9     22.43
    3001   37.00     507   497.2     22.52
    3002   37.01     494   496.6     22.23
    3003   37.02     498   496.1     22.32
    3004   37.03     485   495.6     22.02
    3005   37.04     483   495.2     21.98
    3006   37.05     487   494.8     22.07
    3007   37.06     478   494.4     21.86
    3008   37.07     498   494.1     22.32
    3009   37.08     481   493.8     21.93
    3010   37.09     494   494.6     22.23
    3011   37.10     486   494.4     22.05
    3012   37.11     495   494.2     22.25
    3013   37.12     488   495.5     22.09
    3014   37.13     493   496.8     22.20
    3015   37.14     490   499.4     22.14
    3016   37.15     498   502.9     22.32
    3017   37.16     495   505.4     22.25
    3018   37.17     497   504.4     22.29
    3019   37.18     492   500.9     22.18
    3020   37.19     493   497.5     22.20
    3021   37.20     486   495.3     22.05
    3022   37.21     487   493.2     22.07
    3023   37.22     483   493.2     21.98
    3024   37.23     487   493.1     22.07
    3025   37.24     477   493.1     21.84
    3026   37.25     496   493.1     22.27
    3027   37.26     488   493.2     22.09
    3028   37.27     481   493.2     21.93
    3029   37.28     480   493.3     21.91
    3030   37.29     497   493.3     22.29
    3031   37.30     486   493.4     22.05
    3032   37.31     469   493.5     21.66
    3033   37.32     474   493.6     21.77
    3034   37.33     472   493.7     21.73
    3035   37.34     483   493.9     21.98
    3036   37.35     492   494.1     22.18
    3037   37.36     485   494.3     22.02
    3038   37.37     491   494.5     22.16
    3039   37.38     482   494.8     21.95
    3040   37.39     485   495.1     22.02
    3041   37.40     486   495.5     22.05
    3042   37.41     484   497.1     22.00
    3043   37.42     499   497.9     22.34
    3044   37.43     502     499     22.41
    3045   37.44     503   500.6     22.43
    3046   37.45     507   504.4     22.52
    3047   37.46     513   507.9     22.65
    3048   37.47     526   514.5     22.93
    3049   37.48     529     523     23.00
    3050   37.49     541   532.8     23.26
    3051   37.50     534   541.8     23.11
    3052   37.51     531   547.1     23.04
    3053   37.52     536   547.3     23.15
    3054   37.53     552   544.1     23.49
    3055   37.54     537   541.2     23.17
    3056   37.55     536   541.4     23.15
    3057   37.56     556   546.8     23.58
    3058   37.57     554   559.1     23.54
    3059   37.58     569   579.3     23.85
    3060   37.59     598   611.7     24.45
    3061   37.60     655   656.9     25.59
    3062   37.61     706   715.6     26.57
    3063   37.62     790     782     28.11
    3064   37.63     849   834.4     29.14
    3065   37.64     837     842     28.93
    3066   37.65     800   796.9     28.28
    3067   37.66     717   729.7     26.78
    3068   37.67     655     667     25.59
    3069   37.68     600   617.6     24.49
    3070   37.69     559   581.5     23.64
    3071   37.70     530   558.3     23.02
    3072   37.71     524   541.3     22.89
    3073   37.72     520   529.9     22.80
    3074   37.73     511   522.2     22.61
    3075   37.74     519   516.9     22.78
    3076   37.75     508   513.1     22.54
    3077   37.76     504   510.4     22.45
    3078   37.77     508   508.4     22.54
    3079   37.78     514   506.9     22.67
    3080   37.79     502     506     22.41
    3081   37.80     495   505.5     22.25
    3082   37.81     495   505.4     22.25
    3083   37.82     494   505.8     22.23
    3084   37.83     504   507.9     22.45
    3085   37.84     492   509.8     22.18
    3086   37.85     501   513.1     22.38
    3087   37.86     518   518.2     22.76
    3088   37.87     513   526.1     22.65
    3089   37.88     523   537.5     22.87
    3090   37.89     543   553.5     23.30
    3091   37.90     566   574.3     23.79
    3092   37.91     599   598.1     24.47
    3093   37.92     616   617.6     24.82
    3094   37.93     612   621.1     24.74
    3095   37.94     606   605.5     24.62
    3096   37.95     592   581.2     24.33
    3097   37.96     543   558.1     23.30
    3098   37.97     525   539.8     22.91
    3099   37.98     507   526.3     22.52
    3100   37.99     502   516.8     22.41
    3101   38.00     492   510.3     22.18
    3102   38.01     497   505.9     22.29
    3103   38.02     495   502.8     22.25
    3104   38.03     492   500.7     22.18
    3105   38.04     493   499.1     22.20
    3106   38.05     482   497.8     21.95
    3107   38.06     478   496.8     21.86
    3108   38.07     480     496     21.91
    3109   38.08     489   495.4     22.11
    3110   38.09     493   494.8     22.20
    3111   38.10     483   494.4     21.98
    3112   38.11     482     494     21.95
    3113   38.12     480   493.6     21.91
    3114   38.13     480   493.3     21.91
    3115   38.14     479   493.1     21.89
    3116   38.15     482   492.8     21.95
    3117   38.16     478   490.7     21.86
    3118   38.17     479   490.7     21.89
    3119   38.18     484   490.7     22.00
    3120   38.19     479   489.7     21.89
    3121   38.20     482   490.7     21.95
    3122   38.21     478   490.8     21.86
    3123   38.22     478   490.8     21.86
    3124   38.23     476   490.9     21.82
    3125   38.24     476   490.9     21.82
    3126   38.25     477     491     21.84
    3127   38.26     485   491.1     22.02
    3128   38.27     477   491.1     21.84
    3129   38.28     494   491.2     22.23
    3130   38.29     478   491.3     21.86
    3131   38.30     479   491.3     21.89
    3132   38.31     489   495.8     22.11
    3133   38.32     494   500.3     22.23
    3134   38.33     505     508     22.47
    3135   38.34     508   517.3     22.54
    3136   38.35     511   522.5     22.61
    3137   38.36     506   518.2     22.49
    3138   38.37     501   509.2     22.38
    3139   38.38     499   501.5     22.34
    3140   38.39     487   496.9     22.07
    3141   38.40     492   494.8     22.18
    3142   38.41     480   492.5     21.91
    3143   38.42     482   492.6     21.95
    3144   38.43     481   492.7     21.93
    3145   38.44     471   492.9     21.70
    3146   38.45     466   493.1     21.59
    3147   38.46     476   493.2     21.82
    3148   38.47     483   493.4     21.98
    3149   38.48     479   493.6     21.89
    3150   38.49     480   493.8     21.91
    3151   38.50     493     494     22.20
    3152   38.51     489   494.2     22.11
    3153   38.52     490   494.5     22.14
    3154   38.53     494   494.7     22.23
    3155   38.54     485     495     22.02
    3156   38.55     493   495.3     22.20
    3157   38.56     484   495.6     22.00
    3158   38.57     485   495.9     22.02
    3159   38.58     484   496.3     22.00
    3160   38.59     494   496.6     22.23
    3161   38.60     483     497     21.98
    3162   38.61     492   497.4     22.18
    3163   38.62     492   497.9     22.18
    3164   38.63     483   498.4     21.98
    3165   38.64     488   498.9     22.09
    3166   38.65     476   499.5     21.82
    3167   38.66     489   500.1     22.11
    3168   38.67     503   500.7     22.43
    3169   38.68     500   501.4     22.36
    3170   38.69     494   502.2     22.23
    3171   38.70     500     503     22.36
    3172   38.71     488   503.9     22.09
    3173   38.72     493   504.9     22.20
    3174   38.73     496   505.9     22.27
    3175   38.74     500   507.1     22.36
    3176   38.75     510   508.3     22.58
    3177   38.76     508   509.7     22.54
    3178   38.77     518   511.3     22.76
    3179   38.78     518     513     22.76
    3180   38.79     522   514.9     22.85
    3181   38.80     524     517     22.89
    3182   38.81     516   519.3     22.72
    3183   38.82     544   521.9     23.32
    3184   38.83     542   524.9     23.28
    3185   38.84     561   528.2     23.69
    3186   38.85     560     532     23.66
    3187   38.86     558   536.3     23.62
    3188   38.87     569   541.3     23.85
    3189   38.88     576     547     24.00
    3190   38.89     586   553.7     24.21
    3191   38.90     586   561.6     24.21
    3192   38.91     607   570.9     24.64
    3193   38.92     605     582     24.60
    3194   38.93     644   595.4     25.38
    3195   38.94     672   611.8     25.92
    3196   38.95     684   632.3     26.15
    3197   38.96     708   658.7     26.61
    3198   38.97     739   693.9     27.18
    3199   38.98     797   742.4     28.23
    3200   38.99     840     812     28.98
    3201   39.00     924   913.4     30.40
    3202   39.01    1023  1061.7     31.98
    3203   39.02    1195  1274.2     34.57
    3204   39.03    1471  1568.9     38.35
    3205   39.04    1845  1957.5     42.95
    3206   39.05    2408  2423.8     49.07
    3207   39.06    2928  2870.5     54.11
    3208   39.07    3152  3084.6     56.14
    3209   39.08    2992  2909.4     54.70
    3210   39.09    2521  2468.8     50.21
    3211   39.10    1969  1991.4     44.37
    3212   39.11    1517    1590     38.95
    3213   39.12    1186  1285.7     34.44
    3214   39.13    1010  1066.8     31.78
    3215   39.14     873   914.9     29.55
    3216   39.15     815   811.4     28.55
    3217   39.16     748   740.9     27.35
    3218   39.17     719   691.9     26.81
    3219   39.18     690   656.6     26.27
    3220   39.19     653   630.1     25.55
    3221   39.20     649   609.5     25.48
    3222   39.21     629     593     25.08
    3223   39.22     599   580.6     24.47
    3224   39.23     594   569.5     24.37
    3225   39.24     573   560.3     23.94
    3226   39.25     570   552.5     23.87
    3227   39.26     557   545.8     23.60
    3228   39.27     561   540.1     23.69
    3229   39.28     552   535.1     23.49
    3230   39.29     550   530.8     23.45
    3231   39.30     546   527.1     23.37
    3232   39.31     537   523.8     23.17
    3233   39.32     532   520.8     23.07
    3234   39.33     522   518.2     22.85
    3235   39.34     511   515.9     22.61
    3236   39.35     514   513.8     22.67
    3237   39.36     512     512     22.63
    3238   39.37     508   510.3     22.54
    3239   39.38     499   508.8     22.34
    3240   39.39     487   507.4     22.07
    3241   39.40     500   506.2     22.36
    3242   39.41     490     505     22.14
    3243   39.42     483     504     21.98
    3244   39.43     497   503.1     22.29
    3245   39.44     500   502.2     22.36
    3246   39.45     498   501.4     22.32
    3247   39.46     499   500.7     22.34
    3248   39.47     493   500.1     22.20
    3249   39.48     499   499.5     22.34
    3250   39.49     486   498.9     22.05
    3251   39.50     492   498.5     22.18
    3252   39.51     491     498     22.16
    3253   39.52     481   497.6     21.93
    3254   39.53     476   497.3     21.82
    3255   39.54     486     497     22.05
    3256   39.55     473   496.7     21.75
    3257   39.56     488   496.5     22.09
    3258   39.57     487   496.3     22.07
    3259   39.58     489   496.2     22.11
    3260   39.59     485   496.1     22.02
    3261   39.60     487     496     22.07
    3262   39.61     487     496     22.07
    3263   39.62     481   496.1     21.93
    3264   39.63     490   497.2     22.14
    3265   39.64     481   497.4     21.93
    3266   39.65     491   497.7     22.16
    3267   39.66     492   498.1     22.18
    3268   39.67     498   498.6     22.32
    3269   39.68     492   499.1     22.18
    3270   39.69     486   499.8     22.05
    3271   39.70     486   500.7     22.05
    3272   39.71     485   501.7     22.02
    3273   39.72     491   502.9     22.16
    3274   39.73     494   504.3     22.23
    3275   39.74     500     506     22.36
    3276   39.75     504   508.1     22.45
    3277   39.76     492   510.6     22.18
    3278   39.77     503   513.7     22.43
    3279   39.78     503   517.6     22.43
    3280   39.79     518   522.5     22.76
    3281   39.80     526   528.8     22.93
    3282   39.81     534   537.2     23.11
    3283   39.82     539   549.1     23.22
    3284   39.83     557     566     23.60
    3285   39.84     581   590.8     24.10
    3286   39.85     599   626.9     24.47
    3287   39.86     631   678.3     25.12
    3288   39.87     702   749.3     26.50
    3289   39.88     802   842.1     28.32
    3290   39.89     927   952.4     30.45
    3291   39.90    1048    1056     32.37
    3292   39.91    1103    1103     33.21
    3293   39.92    1067    1059     32.66
    3294   39.93     945   954.6     30.74
    3295   39.94     827   841.4     28.76
    3296   39.95     714   746.8     26.72
    3297   39.96     637   674.9     25.24
    3298   39.97     599   622.9     24.47
    3299   39.98     568   586.7     23.83
    3300   39.99     556   561.8     23.58
    3301   40.00     529   545.9     23.00
    3302   40.01     524   534.2     22.89
    3303   40.02     523   525.7     22.87
    3304   40.03     517   519.5     22.74
    3305   40.04     508   514.6     22.54
    3306   40.05     510   510.8     22.58
    3307   40.06     502   507.8     22.41
    3308   40.07     491   505.5     22.16
    3309   40.08     511   503.7     22.61
    3310   40.09     490   502.4     22.14
    3311   40.10     496   501.6     22.27
    3312   40.11     500   501.5     22.36
    3313   40.12     483   502.3     21.98
    3314   40.13     495     504     22.25
    3315   40.14     495   507.1     22.25
    3316   40.15     495   511.7     22.25
    3317   40.16     496   517.8     22.27
    3318   40.17     528   524.9     22.98
    3319   40.18     527   531.8     22.96
    3320   40.19     530   532.8     23.02
    3321   40.20     512   527.9     22.63
    3322   40.21     505   520.8     22.47
    3323   40.22     490   515.2     22.14
    3324   40.23     486     514     22.05
    3325   40.24     500   519.1     22.36
    3326   40.25     517   529.5     22.74
    3327   40.26     521   538.7     22.83
    3328   40.27     527   535.6     22.96
    3329   40.28     521   521.6     22.83
    3330   40.29     508   507.1     22.54
    3331   40.30     496   496.3     22.27
    3332   40.31     485   491.1     22.02
    3333   40.32     491   488.6     22.16
    3334   40.33     478   487.3     21.86
    3335   40.34     476   486.5     21.82
    3336   40.35     463   485.9     21.52
    3337   40.36     466   484.5     21.59
    3338   40.37     463   484.2     21.52
    3339   40.38     479     483     21.89
    3340   40.39     481   482.9     21.93
    3341   40.40     473   482.8     21.75
    3342   40.41     461   482.7     21.47
    3343   40.42     465   482.6     21.56
    3344   40.43     464   482.6     21.54
    3345   40.44     468   482.5     21.63
    3346   40.45     461   482.4     21.47
    3347   40.46     458   482.3     21.40
    3348   40.47     465   482.3     21.56
    3349   40.48     451   482.2     21.24
    3350   40.49     453   482.2     21.28
    3351   40.50     462   482.1     21.49
    3352   40.51     468   482.1     21.63
    3353   40.52     460     482     21.45
    3354   40.53     459     482     21.42
    3355   40.54     460   481.9     21.45
    3356   40.55     462   481.9     21.49
    3357   40.56     470   481.9     21.68
    3358   40.57     467   481.8     21.61
    3359   40.58     467   481.8     21.61
    3360   40.59     458   481.8     21.40
    3361   40.60     455   480.8     21.33
    3362   40.61     461   480.8     21.47
    3363   40.62     459   480.9     21.42
    3364   40.63     468   480.9     21.63
    3365   40.64     465   480.9     21.56
    3366   40.65     470     481     21.68
    3367   40.66     469     481     21.66
    3368   40.67     468     481     21.63
    3369   40.68     463   481.1     21.52
    3370   40.69     464   481.1     21.54
    3371   40.70     465   481.2     21.56
    3372   40.71     462   481.3     21.49
    3373   40.72     467   481.3     21.61
    3374   40.73     471   481.4     21.70
    3375   40.74     451   481.5     21.24
    3376   40.75     468   481.6     21.63
    3377   40.76     465   481.7     21.56
    3378   40.77     464   481.8     21.54
    3379   40.78     465     482     21.56
    3380   40.79     470   482.1     21.68
    3381   40.80     472   482.2     21.73
    3382   40.81     473   482.4     21.75
    3383   40.82     467   482.6     21.61
    3384   40.83     479   482.8     21.89
    3385   40.84     467     483     21.61
    3386   40.85     478   483.2     21.86
    3387   40.86     469   483.5     21.66
    3388   40.87     480   483.7     21.91
    3389   40.88     475     484     21.79
    3390   40.89     491   484.3     22.16
    3391   40.90     484   484.7     22.00
    3392   40.91     478   485.1     21.86
    3393   40.92     479   486.9     21.89
    3394   40.93     488   488.3     22.09
    3395   40.94     486   490.1     22.05
    3396   40.95     487   492.3     22.07
    3397   40.96     478   494.8     21.86
    3398   40.97     486     497     22.05
    3399   40.98     481   498.3     21.93
    3400   40.99     491   498.3     22.16
    3401   41.00     496   497.6     22.27
    3402   41.01     505   496.9     22.47
    3403   41.02     502   496.5     22.41
    3404   41.03     495   496.6     22.25
    3405   41.04     490   497.4     22.14
    3406   41.05     509   497.8     22.56
    3407   41.06     505   499.8     22.47
    3408   41.07     509   502.1     22.56
    3409   41.08     522   504.7     22.85
    3410   41.09     511   507.8     22.61
    3411   41.10     517   511.3     22.74
    3412   41.11     522   515.5     22.85
    3413   41.12     519   520.5     22.78
    3414   41.13     546   526.4     23.37
    3415   41.14     549   533.7     23.43
    3416   41.15     563   542.6     23.73
    3417   41.16     573   553.9     23.94
    3418   41.17     599   568.6     24.47
    3419   41.18     603   588.5     24.56
    3420   41.19     627   616.2     25.04
    3421   41.20     661     656     25.71
    3422   41.21     704   713.8     26.53
    3423   41.22     761   796.8     27.59
    3424   41.23     848   913.3     29.12
    3425   41.24     972    1071     31.18
    3426   41.25    1181  1272.3     34.37
    3427   41.26    1442  1500.6     37.97
    3428   41.27    1673    1694     40.90
    3429   41.28    1771  1748.9     42.08
    3430   41.29    1677  1623.6     40.95
    3431   41.30    1432  1400.9     37.84
    3432   41.31    1191  1176.9     34.51
    3433   41.32     968   993.5     31.11
    3434   41.33     806   854.5     28.39
    3435   41.34     725   757.3     26.93
    3436   41.35     676   692.2     26.00
    3437   41.36     656   652.2     25.61
    3438   41.37     632   627.3     25.14
    3439   41.38     606   605.7     24.62
    3440   41.39     578   581.6     24.04
    3441   41.40     576   559.5     24.00
    3442   41.41     560   542.7     23.66
    3443   41.42     548   529.7     23.41
    3444   41.43     541   521.9     23.26
    3445   41.44     514   515.1     22.67
    3446   41.45     509   510.4     22.56
    3447   41.46     521   506.5     22.83
    3448   41.47     508   504.1     22.54
    3449   41.48     493   501.2     22.20
    3450   41.49     497   498.7     22.29
    3451   41.50     491   496.5     22.16
    3452   41.51     492   494.6     22.18
    3453   41.52     489   492.9     22.11
    3454   41.53     481   491.4     21.93
    3455   41.54     490     490     22.14
    3456   41.55     498   488.8     22.32
    3457   41.56     480   487.8     21.91
    3458   41.57     489   486.8     22.11
    3459   41.58     484   485.9     22.00
    3460   41.59     483   485.1     21.98
    3461   41.60     466   484.4     21.59
    3462   41.61     483   483.8     21.98
    3463   41.62     468   483.2     21.63
    3464   41.63     476   482.7     21.82
    3465   41.64     475   482.2     21.79
    3466   41.65     475   482.7     21.79
    3467   41.66     470   482.4     21.68
    3468   41.67     476   482.1     21.82
    3469   41.68     479   481.8     21.89
    3470   41.69     468   481.6     21.63
    3471   41.70     476   481.4     21.82
    3472   41.71     472   481.2     21.73
    3473   41.72     459   481.1     21.42
    3474   41.73     467     481     21.61
    3475   41.74     458     481     21.40
    3476   41.75     462     481     21.49
    3477   41.76     474     481     21.77
    3478   41.77     464   481.1     21.54
    3479   41.78     472   481.2     21.73
    3480   41.79     479   481.4     21.89
    3481   41.80     477   481.7     21.84
    3482   41.81     466   481.9     21.59
    3483   41.82     481   482.3     21.93
    3484   41.83     472   482.7     21.73
    3485   41.84     469   483.3     21.66
    3486   41.85     470   483.9     21.68
    3487   41.86     468   484.7     21.63
    3488   41.87     460   485.5     21.45
    3489   41.88     479   486.6     21.89
    3490   41.89     483   487.8     21.98
    3491   41.90     488   489.3     22.09
    3492   41.91     483   491.1     21.98
    3493   41.92     480   493.2     21.91
    3494   41.93     488   495.8     22.09
    3495   41.94     490   498.9     22.14
    3496   41.95     499   502.8     22.34
    3497   41.96     504   507.7     22.45
    3498   41.97     523   514.1     22.87
    3499   41.98     513   522.6     22.65
    3500   41.99     527   534.5     22.96
    3501   42.00     553   551.4     23.52
    3502   42.01     571     576     23.90
    3503   42.02     589   611.3     24.27
    3504   42.03     637   661.2     25.24
    3505   42.04     682   729.2     26.12
    3506   42.05     773   817.5     27.80
    3507   42.06     890   921.9     29.83
    3508   42.07    1003    1021     31.67
    3509   42.08    1060  1070.1     32.56
    3510   42.09    1050  1035.5     32.40
    3511   42.10     954   940.4     30.89
    3512   42.11     844     834     29.05
    3513   42.12     740   741.3     27.20
    3514   42.13     648   669.3     25.46
    3515   42.14     603   616.5     24.56
    3516   42.15     573     579     23.94
    3517   42.16     557   553.1     23.60
    3518   42.17     524   535.2     22.89
    3519   42.18     525   522.8     22.91
    3520   42.19     520     514     22.80
    3521   42.20     515   507.5     22.69
    3522   42.21     508   502.6     22.54
    3523   42.22     496   498.8     22.27
    3524   42.23     500   495.9     22.36
    3525   42.24     483   493.8     21.98
    3526   42.25     502   492.4     22.41
    3527   42.26     493   491.8     22.20
    3528   42.27     499   492.1     22.34
    3529   42.28     479   493.6     21.89
    3530   42.29     492   496.4     22.18
    3531   42.30     501   501.1     22.38
    3532   42.31     504   507.9     22.45
    3533   42.32     499   516.6     22.34
    3534   42.33     520   526.3     22.80
    3535   42.34     524   533.4     22.89
    3536   42.35     527   533.5     22.96
    3537   42.36     524   524.9     22.89
    3538   42.37     510   513.8     22.58
    3539   42.38     487   503.2     22.07
    3540   42.39     498   494.6     22.32
    3541   42.40     492   488.1     22.18
    3542   42.41     481   483.2     21.93
    3543   42.42     477   480.7     21.84
    3544   42.43     462   478.3     21.49
    3545   42.44     467   476.5     21.61
    3546   42.45     467   475.2     21.61
    3547   42.46     463   474.1     21.52
    3548   42.47     467   473.3     21.61
    3549   42.48     453   472.6     21.28
    3550   42.49     457     472     21.38
    3551   42.50     442   471.5     21.02
    3552   42.51     457     471     21.38
    3553   42.52     465   469.7     21.56
    3554   42.53     460   469.4     21.45
    3555   42.54     467   469.1     21.61
    3556   42.55     458   468.9     21.40
    3557   42.56     460   468.6     21.45
    3558   42.57     458   468.4     21.40
    3559   42.58     454   467.2     21.31
    3560   42.59     457   467.1     21.38
    3561   42.60     465     467     21.56
    3562   42.61     452   466.9     21.26
    3563   42.62     455   466.8     21.33
    3564   42.63     446   466.8     21.12
    3565   42.64     450   466.7     21.21
    3566   42.65     456   466.6     21.35
    3567   42.66     458   466.5     21.40
    3568   42.67     448   466.5     21.17
    3569   42.68     454   466.4     21.31
    3570   42.69     451   466.3     21.24
    3571   42.70     446   465.3     21.12
    3572   42.71     446   465.3     21.12
    3573   42.72     452   465.3     21.26
    3574   42.73     447   465.3     21.14
    3575   42.74     449   465.2     21.19
    3576   42.75     463   465.2     21.52
    3577   42.76     456   465.2     21.35
    3578   42.77     454   465.2     21.31
    3579   42.78     454   465.2     21.31
    3580   42.79     457   465.2     21.38
    3581   42.80     452   465.2     21.26
    3582   42.81     461   465.2     21.47
    3583   42.82     451   465.2     21.24
    3584   42.83     454   465.3     21.31
    3585   42.84     454   465.3     21.31
    3586   42.85     462   466.5     21.49
    3587   42.86     459   466.8     21.42
    3588   42.87     463   467.4     21.52
    3589   42.88     467   468.4     21.61
    3590   42.89     472   470.1     21.73
    3591   42.90     459   472.8     21.42
    3592   42.91     470   476.9     21.68
    3593   42.92     472   482.1     21.73
    3594   42.93     484   487.8     22.00
    3595   42.94     489   492.3     22.11
    3596   42.95     469   493.6     21.66
    3597   42.96     486   490.9     22.05
    3598   42.97     483   485.9     21.98
    3599   42.98     481   480.6     21.93
    3600   42.99     486   476.1     22.05
    3601   43.00     486   472.9     22.05
    3602   43.01     476   470.9     21.82
    3603   43.02     485   469.9     22.02
    3604   43.03     474   469.4     21.77
    3605   43.04     461   469.4     21.47
    3606   43.05     466   469.5     21.59
    3607   43.06     473   468.8     21.75
    3608   43.07     466   469.2     21.59
    3609   43.08     464   469.7     21.54
    3610   43.09     461   470.3     21.47
    3611   43.10     462   470.9     21.49
    3612   43.11     475   471.6     21.79
    3613   43.12     476   472.3     21.82
    3614   43.13     482   473.2     21.95
    3615   43.14     481   474.2     21.93
    3616   43.15     483   476.6     21.98
    3617   43.16     477   478.9     21.84
    3618   43.17     487   481.5     22.07
    3619   43.18     484   483.7     22.00
    3620   43.19     481   484.9     21.93
    3621   43.20     483   485.9     21.98
    3622   43.21     491   486.4     22.16
    3623   43.22     487   489.4     22.07
    3624   43.23     498     493     22.32
    3625   43.24     509   497.3     22.56
    3626   43.25     518   502.5     22.76
    3627   43.26     521   508.9     22.83
    3628   43.27     518   516.9     22.76
    3629   43.28     546   527.2     23.37
    3630   43.29     559   540.9     23.64
    3631   43.30     574   559.8     23.96
    3632   43.31     583   586.7     24.15
    3633   43.32     618   625.2     24.86
    3634   43.33     653   680.4     25.55
    3635   43.34     702   757.9     26.50
    3636   43.35     781   863.3     27.95
    3637   43.36     913  1000.2     30.22
    3638   43.37    1072  1163.6     32.74
    3639   43.38    1290  1324.6     35.92
    3640   43.39    1431  1417.3     37.83
    3641   43.40    1441  1382.3     37.96
    3642   43.41    1326  1242.1     36.41
    3643   43.42    1131  1071.7     33.63
    3644   43.43     945   919.2     30.74
    3645   43.44     811   798.6     28.48
    3646   43.45     700   708.6     26.46
    3647   43.46     649     644     25.48
    3648   43.47     603   598.8     24.56
    3649   43.48     578   567.4     24.04
    3650   43.49     565   545.4     23.77
    3651   43.50     547   529.7     23.39
    3652   43.51     544   518.1     23.32
    3653   43.52     522   509.1     22.85
    3654   43.53     517   504.1     22.74
    3655   43.54     520   499.5     22.80
    3656   43.55     505   496.5     22.47
    3657   43.56     513   496.7     22.65
    3658   43.57     508   496.5     22.54
    3659   43.58     503   496.2     22.43
    3660   43.59     495   494.4     22.25
    3661   43.60     500   490.7     22.36
    3662   43.61     490   486.8     22.14
    3663   43.62     483     482     21.98
    3664   43.63     480   476.8     21.91
    3665   43.64     472     474     21.73
    3666   43.65     483   471.8     21.98
    3667   43.66     478   469.1     21.86
    3668   43.67     481   468.2     21.93
    3669   43.68     471   467.4     21.70
    3670   43.69     467   466.6     21.61
    3671   43.70     464   465.9     21.54
    3672   43.71     463   465.3     21.52
    3673   43.72     470   464.8     21.68
    3674   43.73     461   464.3     21.47
    3675   43.74     470   463.8     21.68
    3676   43.75     466   463.4     21.59
    3677   43.76     453     463     21.28
    3678   43.77     469   462.7     21.66
    3679   43.78     455   462.4     21.33
    3680   43.79     456   462.1     21.35
    3681   43.80     454   461.9     21.31
    3682   43.81     448   461.6     21.17
    3683   43.82     464   461.5     21.54
    3684   43.83     455   461.3     21.33
    3685   43.84     450   461.2     21.21
    3686   43.85     461   461.1     21.47
    3687   43.86     452     461     21.26
    3688   43.87     454     461     21.31
    3689   43.88     450     461     21.21
    3690   43.89     457     461     21.38
    3691   43.90     450   461.1     21.21
    3692   43.91     454   461.2     21.31
    3693   43.92     455   461.4     21.33
    3694   43.93     450   461.6     21.21
    3695   43.94     453   461.9     21.28
    3696   43.95     457   462.2     21.38
    3697   43.96     469   462.7     21.66
    3698   43.97     453   463.2     21.28
    3699   43.98     457   463.9     21.38
    3700   43.99     443   464.7     21.05
    3701   44.00     465   465.7     21.56
    3702   44.01     471   466.9     21.70
    3703   44.02     472   468.4     21.73
    3704   44.03     473   470.2     21.75
    3705   44.04     470   472.6     21.68
    3706   44.05     473   475.7     21.75
    3707   44.06     477   479.8     21.84
    3708   44.07     487   485.5     22.07
    3709   44.08     480   493.6     21.91
    3710   44.09     495   505.2     22.25
    3711   44.10     507   521.8     22.52
    3712   44.11     522   545.2     22.85
    3713   44.12     542   577.1     23.28
    3714   44.13     584   618.9     24.17
    3715   44.14     640   669.6     25.30
    3716   44.15     707   721.6     26.59
    3717   44.16     736   756.3     27.13
    3718   44.17     758   752.8     27.53
    3719   44.18     724   712.9     26.91
    3720   44.19     666   659.2     25.81
    3721   44.20     608   610.9     24.66
    3722   44.21     564   572.1     23.75
    3723   44.22     529   543.6     23.00
    3724   44.23     504   522.7     22.45
    3725   44.24     500   506.2     22.36
    3726   44.25     497   493.2     22.29
    3727   44.26     479   483.6     21.89
    3728   44.27     475   475.8     21.79
    3729   44.28     479   471.7     21.89
    3730   44.29     470   468.6     21.68
    3731   44.30     463   466.1     21.52
    3732   44.31     473   464.1     21.75
    3733   44.32     466   462.4     21.59
    3734   44.33     463     461     21.52
    3735   44.34     463   459.8     21.52
    3736   44.35     455   458.7     21.33
    3737   44.36     446   456.8     21.12
    3738   44.37     455     456     21.33
    3739   44.38     447   455.4     21.14
    3740   44.39     437   454.7     20.90
    3741   44.40     451   454.2     21.24
    3742   44.41     449   453.7     21.19
    3743   44.42     437   453.2     20.90
    3744   44.43     449   452.8     21.19
    3745   44.44     451   452.5     21.24
    3746   44.45     446   452.1     21.12
    3747   44.46     446   451.8     21.12
    3748   44.47     444   451.5     21.07
    3749   44.48     446   451.2     21.12
    3750   44.49     446     451     21.12
    3751   44.50     445   450.7     21.10
    3752   44.51     458   450.5     21.40
    3753   44.52     438   450.3     20.93
    3754   44.53     441     450     21.00
    3755   44.54     445   449.8     21.10
    3756   44.55     440   449.7     20.98
    3757   44.56     434   450.5     20.83
    3758   44.57     443   450.3     21.05
    3759   44.58     445   450.2     21.10
    3760   44.59     443     450     21.05
    3761   44.60     439   449.9     20.95
    3762   44.61     443   449.8     21.05
    3763   44.62     438   449.7     20.93
    3764   44.63     436   449.5     20.88
    3765   44.64     433   449.4     20.81
    3766   44.65     432   449.3     20.78
    3767   44.66     435   449.2     20.86
    3768   44.67     447   449.1     21.14
    3769   44.68     435     449     20.86
    3770   44.69     441   448.9     21.00
    3771   44.70     446   448.8     21.12
    3772   44.71     445   448.8     21.10
    3773   44.72     444   447.7     21.07
    3774   44.73     439   447.7     20.95
    3775   44.74     429   447.6     20.71
    3776   44.75     436   447.6     20.88
    3777   44.76     435   447.6     20.86
    3778   44.77     436   447.5     20.88
    3779   44.78     439   447.5     20.95
    3780   44.79     441   447.5     21.00
    3781   44.80     433   447.5     20.81
    3782   44.81     445   447.4     21.10
    3783   44.82     445   447.4     21.10
    3784   44.83     444   447.4     21.07
    3785   44.84     448   447.4     21.17
    3786   44.85     448   447.4     21.17
    3787   44.86     447   447.4     21.14
    3788   44.87     442   447.4     21.02
    3789   44.88     444   447.4     21.07
    3790   44.89     444   447.4     21.07
    3791   44.90     443   447.4     21.05
    3792   44.91     435   447.4     20.86
    3793   44.92     439   447.5     20.95
    3794   44.93     431   447.5     20.76
    3795   44.94     432   447.5     20.78
    3796   44.95     444   447.6     21.07
    3797   44.96     436   447.6     20.88
    3798   44.97     448   447.7     21.17
    3799   44.98     442   447.8     21.02
    3800   44.99     446   447.9     21.12
    3801   45.00     441     448     21.00
    3802   45.01     438   448.1     20.93
    3803   45.02     438   448.2     20.93
    3804   45.03     451   448.4     21.24
    3805   45.04     447   448.5     21.14
    3806   45.05     438   448.7     20.93
    3807   45.06     441   448.9     21.00
    3808   45.07     440   449.1     20.98
    3809   45.08     445   449.4     21.10
    3810   45.09     448   449.7     21.17
    3811   45.10     448     450     21.17
    3812   45.11     443   450.4     21.05
    3813   45.12     462   450.8     21.49
    3814   45.13     446   451.2     21.12
    3815   45.14     452   451.7     21.26
    3816   45.15     450   452.3     21.21
    3817   45.16     455   452.9     21.33
    3818   45.17     444   453.6     21.07
    3819   45.18     444   454.5     21.07
    3820   45.19     459   455.4     21.42
    3821   45.20     465   456.5     21.56
    3822   45.21     463   457.7     21.52
    3823   45.22     468   459.1     21.63
    3824   45.23     465   460.7     21.56
    3825   45.24     473   462.6     21.75
    3826   45.25     471   464.9     21.70
    3827   45.26     481   467.5     21.93
    3828   45.27     490   470.6     22.14
    3829   45.28     480   474.4     21.91
    3830   45.29     490     479     22.14
    3831   45.30     493   484.7     22.20
    3832   45.31     498     492     22.32
    3833   45.32     521   501.6     22.83
    3834   45.33     530   514.6     23.02
    3835   45.34     548   532.8     23.41
    3836   45.35     556   558.7     23.58
    3837   45.36     588   595.5     24.25
    3838   45.37     622   647.2     24.94
    3839   45.38     681     718     26.10
    3840   45.39     746   811.2     27.31
    3841   45.40     868   926.8     29.46
    3842   45.41    1003  1052.8     31.67
    3843   45.42    1158  1153.5     34.03
    3844   45.43    1217  1176.6     34.89
    3845   45.44    1174  1105.4     34.26
    3846   45.45    1037   983.2     32.20
    3847   45.46     887   858.9     29.78
    3848   45.47     758   754.2     27.53
    3849   45.48     675   673.2     25.98
    3850   45.49     616   613.3     24.82
    3851   45.50     567   570.4     23.81
    3852   45.51     556   540.2     23.58
    3853   45.52     528   519.1     22.98
    3854   45.53     521   504.1     22.83
    3855   45.54     513   493.2     22.65
    3856   45.55     489     485     22.11
    3857   45.56     493   478.6     22.20
    3858   45.57     478   473.4     21.86
    3859   45.58     490   469.2     22.14
    3860   45.59     477   465.7     21.84
    3861   45.60     472   462.8     21.73
    3862   45.61     470   460.2     21.68
    3863   45.62     465   458.1     21.56
    3864   45.63     466   456.2     21.59
    3865   45.64     462   454.5     21.49
    3866   45.65     463   453.1     21.52
    3867   45.66     463   451.8     21.52
    3868   45.67     458   450.7     21.40
    3869   45.68     451   449.7     21.24
    3870   45.69     457   448.8     21.38
    3871   45.70     457     448     21.38
    3872   45.71     453   447.2     21.28
    3873   45.72     447   446.5     21.14
    3874   45.73     455   445.9     21.33
    3875   45.74     446   445.3     21.12
    3876   45.75     449   444.8     21.19
    3877   45.76     453   444.3     21.28
    3878   45.77     451   443.9     21.24
    3879   45.78     453   443.4     21.28
    3880   45.79     456     443     21.35
    3881   45.80     444   442.7     21.07
    3882   45.81     458   442.3     21.40
    3883   45.82     444     445     21.07
    3884   45.83     459   444.8     21.42
    3885   45.84     444   444.7     21.07
    3886   45.85     447   444.7     21.14
    3887   45.86     447   444.6     21.14
    3888   45.87     451   444.6     21.24
    3889   45.88     446   444.7     21.12
    3890   45.89     448   444.8     21.17
    3891   45.90     456   444.9     21.35
    3892   45.91     444   448.9     21.07
    3893   45.92     452   452.8     21.26
    3894   45.93     472   458.1     21.73
    3895   45.94     468   462.3     21.63
    3896   45.95     466     462     21.59
    3897   45.96     470   457.8     21.68
    3898   45.97     468   453.7     21.63
    3899   45.98     453   450.3     21.28
    3900   45.99     467   449.1     21.61
    3901   46.00     468   450.2     21.63
    3902   46.01     469   451.5     21.66
    3903   46.02     472   454.5     21.73
    3904   46.03     465   457.4     21.56
    3905   46.04     460   461.1     21.45
    3906   46.05     473   465.8     21.75
    3907   46.06     479   471.7     21.89
    3908   46.07     484   478.5     22.00
    3909   46.08     495   486.5     22.25
    3910   46.09     493   496.3     22.20
    3911   46.10     495   509.9     22.25
    3912   46.11     524   529.6     22.89
    3913   46.12     543   557.9     23.30
    3914   46.13     560   596.7     23.66
    3915   46.14     631   645.8     25.12
    3916   46.15     683   705.5     26.13
    3917   46.16     745   762.8     27.29
    3918   46.17     799   794.6     28.27
    3919   46.18     807   781.2     28.41
    3920   46.19     760   730.9     27.57
    3921   46.20     693   669.3     26.32
    3922   46.21     620   613.2     24.90
    3923   46.22     572   568.2     23.92
    3924   46.23     537   534.1     23.17
    3925   46.24     507   509.2     22.52
    3926   46.25     500   491.4     22.36
    3927   46.26     501     479     22.38
    3928   46.27     480   470.1     21.91
    3929   46.28     469   464.8     21.66
    3930   46.29     466   460.1     21.59
    3931   46.30     469   456.6     21.66
    3932   46.31     466     454     21.59
    3933   46.32     463   451.9     21.52
    3934   46.33     457   450.4     21.38
    3935   46.34     456   449.4     21.35
    3936   46.35     446   448.8     21.12
    3937   46.36     450   448.7     21.21
    3938   46.37     448   450.6     21.17
    3939   46.38     448   452.1     21.17
    3940   46.39     458   454.4     21.40
    3941   46.40     471     457     21.70
    3942   46.41     463   459.2     21.52
    3943   46.42     460   459.5     21.45
    3944   46.43     451   457.4     21.24
    3945   46.44     454   453.9     21.31
    3946   46.45     448   450.2     21.17
    3947   46.46     446     447     21.12
    3948   46.47     447   444.4     21.14
    3949   46.48     443   441.5     21.05
    3950   46.49     436   440.3     20.88
    3951   46.50     450   439.4     21.21
    3952   46.51     451   438.7     21.24
    3953   46.52     445   438.1     21.10
    3954   46.53     449   434.8     21.19
    3955   46.54     439   434.6     20.95
    3956   46.55     441   433.6     21.00
    3957   46.56     436   433.6     20.88
    3958   46.57     433   433.5     20.81
    3959   46.58     429   433.5     20.71
    3960   46.59     443   433.5     21.05
    3961   46.60     438   433.5     20.93
    3962   46.61     444   434.4     21.07
    3963   46.62     433   434.5     20.81
    3964   46.63     437   434.5     20.90
    3965   46.64     433   434.5     20.81
    3966   46.65     434   434.5     20.83
    3967   46.66     442   434.5     21.02
    3968   46.67     434   434.6     20.83
    3969   46.68     441   434.6     21.00
    3970   46.69     431   434.6     20.76
    3971   46.70     440   434.7     20.98
    3972   46.71     443   434.7     21.05
    3973   46.72     435   434.8     20.86
    3974   46.73     449   434.8     21.19
    3975   46.74     440   434.9     20.98
    3976   46.75     446   434.9     21.12
    3977   46.76     435     435     20.86
    3978   46.77     441   435.1     21.00
    3979   46.78     446   435.2     21.12
    3980   46.79     441   435.3     21.00
    3981   46.80     436   435.4     20.88
    3982   46.81     431   435.5     20.76
    3983   46.82     427   435.6     20.66
    3984   46.83     434   435.8     20.83
    3985   46.84     442   435.9     21.02
    3986   46.85     445   436.1     21.10
    3987   46.86     439   436.2     20.95
    3988   46.87     443   436.4     21.05
    3989   46.88     438   436.6     20.93
    3990   46.89     453   436.8     21.28
    3991   46.90     448     437     21.17
    3992   46.91     440   439.1     20.98
    3993   46.92     463   441.1     21.52
    3994   46.93     453   444.1     21.28
    3995   46.94     451   448.7     21.24
    3996   46.95     465   449.8     21.56
    3997   46.96     452   446.4     21.26
    3998   46.97     459   443.9     21.42
    3999   46.98     436   442.1     20.88
    4000   46.99     457   440.2     21.38
    4001   47.00     456   440.7     21.35
    4002   47.01     462   441.2     21.49
    4003   47.02     455   441.9     21.33
    4004   47.03     460   442.5     21.45
    4005   47.04     468   443.2     21.63
    4006   47.05     462     444     21.49
    4007   47.06     455   444.9     21.33
    4008   47.07     466   445.9     21.59
    4009   47.08     477   446.9     21.84
    4010   47.09     459   448.1     21.42
    4011   47.10     471   449.4     21.70
    4012   47.11     472   450.8     21.73
    4013   47.12     464   452.4     21.54
    4014   47.13     478   454.2     21.86
    4015   47.14     474   456.2     21.77
    4016   47.15     486   458.4     22.05
    4017   47.16     491     461     22.16
    4018   47.17     492   463.8     22.18
    4019   47.18     497   467.1     22.29
    4020   47.19     502   470.9     22.41
    4021   47.20     510   475.3     22.58
    4022   47.21     516   480.4     22.72
    4023   47.22     532   486.3     23.07
    4024   47.23     531   493.3     23.04
    4025   47.24     546   501.6     23.37
    4026   47.25     554   511.7     23.54
    4027   47.26     573   524.1     23.94
    4028   47.27     587   539.6     24.23
    4029   47.28     600   559.5     24.49
    4030   47.29     629   586.1     25.08
    4031   47.30     657   622.6     25.63
    4032   47.31     706   673.9     26.57
    4033   47.32     759   746.3     27.55
    4034   47.33     829   848.1     28.79
    4035   47.34     936   988.1     30.59
    4036   47.35    1084  1175.1     32.92
    4037   47.36    1299    1414     36.04
    4038   47.37    1612  1695.7     40.15
    4039   47.38    1948  1973.6     44.14
    4040   47.39    2213  2144.7     47.04
    4041   47.40    2213  2109.9     47.04
    4042   47.41    2009  1888.9     44.82
    4043   47.42    1702    1598     41.26
    4044   47.43    1376  1325.1     37.09
    4045   47.44    1091  1102.1     33.03
    4046   47.45     917     931     30.28
    4047   47.46     811   804.8     28.48
    4048   47.47     723   714.3     26.89
    4049   47.48     684   650.3     26.15
    4050   47.49     653   605.1     25.55
    4051   47.50     616   572.7     24.82
    4052   47.51     589   548.9     24.27
    4053   47.52     572   530.8     23.92
    4054   47.53     562   516.6     23.71
    4055   47.54     538   505.1     23.19
    4056   47.55     541   495.7     23.26
    4057   47.56     534   487.8     23.11
    4058   47.57     522   481.2     22.85
    4059   47.58     509   475.5     22.56
    4060   47.59     516   470.7     22.72
    4061   47.60     502   466.4     22.41
    4062   47.61     492   462.8     22.18
    4063   47.62     475   459.6     21.79
    4064   47.63     484   456.7     22.00
    4065   47.64     479   454.2     21.89
    4066   47.65     481     452     21.93
    4067   47.66     475     450     21.79
    4068   47.67     478   449.2     21.86
    4069   47.68     471   447.6     21.70
    4070   47.69     463   446.2     21.52
    4071   47.70     460   444.9     21.45
    4072   47.71     461   443.8     21.47
    4073   47.72     454   442.7     21.31
    4074   47.73     453   441.8     21.28
    4075   47.74     461   440.9     21.47
    4076   47.75     453   440.1     21.28
    4077   47.76     456   439.4     21.35
    4078   47.77     456   438.7     21.35
    4079   47.78     444   438.1     21.07
    4080   47.79     456   437.6     21.35
    4081   47.80     462   438.1     21.49
    4082   47.81     449   437.8     21.19
    4083   47.82     457   437.5     21.38
    4084   47.83     445     439     21.10
    4085   47.84     443   439.8     21.05
    4086   47.85     444   440.9     21.07
    4087   47.86     449   442.2     21.19
    4088   47.87     463   443.4     21.52
    4089   47.88     449   443.8     21.19
    4090   47.89     449   443.3     21.19
    4091   47.90     441   442.3     21.00
    4092   47.91     448   441.2     21.17
    4093   47.92     446   440.4     21.12
    4094   47.93     456     440     21.35
    4095   47.94     451   439.2     21.24
    4096   47.95     445   440.1     21.10
    4097   47.96     459   441.2     21.42
    4098   47.97     451   442.6     21.24
    4099   47.98     466   444.4     21.59
    4100   47.99     455   446.7     21.33
    4101   48.00     463   449.7     21.52
    4102   48.01     471   453.7     21.70
    4103   48.02     467   459.4     21.61
    4104   48.03     475   467.4     21.79
    4105   48.04     478   478.7     21.86
    4106   48.05     489   494.7     22.11
    4107   48.06     522   516.7     22.85
    4108   48.07     547   546.2     23.39
    4109   48.08     568   584.2     23.83
    4110   48.09     626   629.3     25.02
    4111   48.10     683   675.2     26.13
    4112   48.11     713   706.3     26.70
    4113   48.12     721   705.4     26.85
    4114   48.13     694   672.6     26.34
    4115   48.14     639   625.6     25.28
    4116   48.15     593   580.1     24.35
    4117   48.16     545   542.2     23.35
    4118   48.17     516   512.8     22.72
    4119   48.18     479   489.9     21.89
    4120   48.19     467   474.1     21.61
    4121   48.20     461   462.8     21.47
    4122   48.21     457   454.8     21.38
    4123   48.22     461   449.1     21.47
    4124   48.23     452   444.9     21.26
    4125   48.24     443   441.6     21.05
    4126   48.25     450   440.2     21.21
    4127   48.26     446   438.4     21.12
    4128   48.27     444   437.1     21.07
    4129   48.28     444   436.2     21.07
    4130   48.29     435   435.7     20.86
    4131   48.30     445     437     21.10
    4132   48.31     443   437.8     21.05
    4133   48.32     440   439.2     20.98
    4134   48.33     441   441.1     21.00
    4135   48.34     453     443     21.28
    4136   48.35     449     444     21.19
    4137   48.36     446   443.2     21.12
    4138   48.37     449   440.8     21.19
    4139   48.38     446   437.7     21.12
    4140   48.39     443   434.9     21.05
    4141   48.40     443   432.5     21.05
    4142   48.41     433   429.4     20.81
    4143   48.42     440     430     20.98
    4144   48.43     430     430     20.74
    4145   48.44     433   429.6     20.81
    4146   48.45     438   430.4     20.93
    4147   48.46     432     431     20.78
    4148   48.47     437   430.1     20.90
    4149   48.48     439   429.3     20.95
    4150   48.49     440     428     20.98
    4151   48.50     434   425.5     20.83
    4152   48.51     428   424.4     20.69
    4153   48.52     426   423.5     20.64
    4154   48.53     434     422     20.83
    4155   48.54     424   421.9     20.59
    4156   48.55     425   423.5     20.62
    4157   48.56     423   425.1     20.57
    4158   48.57     435   426.4     20.86
    4159   48.58     427   428.3     20.66
    4160   48.59     434   428.2     20.83
    4161   48.60     438     426     20.93
    4162   48.61     428   423.7     20.69
    4163   48.62     426   422.1     20.64
    4164   48.63     428   420.4     20.69
    4165   48.64     423   420.4     20.57
    4166   48.65     415   420.4     20.37
    4167   48.66     419   420.3     20.47
    4168   48.67     417   420.3     20.42
    4169   48.68     429   420.2     20.71
    4170   48.69     425   420.2     20.62
    4171   48.70     420   420.2     20.49
    4172   48.71     434   420.1     20.83
    4173   48.72     421   420.1     20.52
    4174   48.73     432   420.1     20.78
    4175   48.74     425     420     20.62
    4176   48.75     422     420     20.54
    4177   48.76     419   419.9     20.47
    4178   48.77     410   419.9     20.25
    4179   48.78     419   419.9     20.47
    4180   48.79     424   419.8     20.59
    4181   48.80     413   419.8     20.32
    4182   48.81     423   419.8     20.57
    4183   48.82     426   419.7     20.64
    4184   48.83     420   419.7     20.49
    4185   48.84     422   419.7     20.54
    4186   48.85     422   419.6     20.54
    4187   48.86     416   419.6     20.40
    4188   48.87     420   419.6     20.49
    4189   48.88     412   419.5     20.30
    4190   48.89     416   419.5     20.40
    4191   48.90     411   419.5     20.27
    4192   48.91     422   419.4     20.54
    4193   48.92     411   419.4     20.27
    4194   48.93     433   419.4     20.81
    4195   48.94     416   419.3     20.40
    4196   48.95     427   419.3     20.66
    4197   48.96     427   419.3     20.66
    4198   48.97     424   419.2     20.59
    4199   48.98     429   419.2     20.71
    4200   48.99     434   419.2     20.83
    4201   49.00     429   419.1     20.71
    4202   49.01     425   419.1     20.62
    4203   49.02     430   419.1     20.74
    4204   49.03     431     419     20.76
    4205   49.04     422     419     20.54
    4206   49.05     415     419     20.37
    4207   49.06     427   418.9     20.66
    4208   49.07     419   418.9     20.47
    4209   49.08     417   418.9     20.42
    4210   49.09     415   418.8     20.37
    4211   49.10     418   418.8     20.45
    4212   49.11     412   418.8     20.30
    4213   49.12     423   418.7     20.57
    4214   49.13     421   418.7     20.52
    4215   49.14     417   418.7     20.42
    4216   49.15     412   418.7     20.30
    4217   49.16     421   418.6     20.52
    4218   49.17     407   418.6     20.17
    4219   49.18     416   418.6     20.40
    4220   49.19     421   418.5     20.52
    4221   49.20     422   418.5     20.54
    4222   49.21     418   418.5     20.45
    4223   49.22     414   418.4     20.35
    4224   49.23     422   418.4     20.54
    4225   49.24     421   418.4     20.52
    4226   49.25     427   418.4     20.66
    4227   49.26     422   418.3     20.54
    4228   49.27     440   418.3     20.98
    4229   49.28     413   418.3     20.32
    4230   49.29     425   418.2     20.62
    4231   49.30     426   418.2     20.64
    4232   49.31     428   418.2     20.69
    4233   49.32     424   418.2     20.59
    4234   49.33     422   418.1     20.54
    4235   49.34     410   418.1     20.25
    4236   49.35     423   418.1     20.57
    4237   49.36     416   418.1     20.40
    4238   49.37     414     418     20.35
    4239   49.38     412     418     20.30
    4240   49.39     415     418     20.37
    4241   49.40     415     418     20.37
    4242   49.41     419   417.9     20.47
    4243   49.42     431   417.9     20.76
    4244   49.43     417   417.9     20.42
    4245   49.44     420   417.9     20.49
    4246   49.45     401   417.8     20.02
    4247   49.46     420   417.8     20.49
    4248   49.47     424   417.8     20.59
    4249   49.48     427   417.8     20.66
    4250   49.49     425   417.7     20.62
    4251   49.50     439   417.7     20.95
    4252   49.51     421   418.9     20.52
    4253   49.52     417   420.1     20.42
    4254   49.53     423   424.3     20.57
    4255   49.54     425   427.3     20.62
    4256   49.55     436   428.1     20.88
    4257   49.56     429   425.8     20.71
    4258   49.57     441   422.6     21.00
    4259   49.58     439   419.3     20.95
    4260   49.59     433   418.5     20.81
    4261   49.60     426   418.5     20.64
    4262   49.61     414   418.6     20.35
    4263   49.62     429   418.6     20.71
    4264   49.63     426   418.6     20.64
    4265   49.64     426   418.7     20.64
    4266   49.65     425   418.7     20.62
    4267   49.66     432   418.8     20.78
    4268   49.67     424   418.9     20.59
    4269   49.68     420   418.9     20.49
    4270   49.69     422     419     20.54
    4271   49.70     415   419.1     20.37
    4272   49.71     424   419.2     20.59
    4273   49.72     417   419.4     20.42
    4274   49.73     417   419.5     20.42
    4275   49.74     429   419.7     20.71
    4276   49.75     414   419.8     20.35
    4277   49.76     426     420     20.64
    4278   49.77     422   420.3     20.54
    4279   49.78     428   420.5     20.69
    4280   49.79     428   420.8     20.69
    4281   49.80     432   421.2     20.78
    4282   49.81     432   421.6     20.78
    4283   49.82     423   422.1     20.57
    4284   49.83     424   422.6     20.59
    4285   49.84     430   423.3     20.74
    4286   49.85     431   424.1     20.76
    4287   49.86     429   425.1     20.71
    4288   49.87     433   426.3     20.81
    4289   49.88     430   427.9     20.74
    4290   49.89     443   429.9     21.05
    4291   49.90     439   432.7     20.95
    4292   49.91     447   436.5     21.14
    4293   49.92     456   441.8     21.35
    4294   49.93     456   449.2     21.35
    4295   49.94     465   459.5     21.56
    4296   49.95     469   473.3     21.66
    4297   49.96     493   491.2     22.20
    4298   49.97     505   513.4     22.47
    4299   49.98     543     538     23.30
    4300   49.99     563   559.4     23.73
    4301   50.00     572   568.3     23.92
    4302   50.01     580   559.3     24.08
    4303   50.02     547   537.6     23.39
    4304   50.03     533   512.8     23.09
    4305   50.04     503   490.5     22.43
    4306   50.05     478   472.5     21.86
    4307   50.06     454   458.7     21.31
    4308   50.07     455   448.5     21.33
    4309   50.08     439   441.1     20.95
    4310   50.09     444   435.8     21.07
    4311   50.10     440   433.2     20.98
    4312   50.11     443   430.6     21.05
    4313   50.12     432   428.8     20.78
    4314   50.13     430   427.6     20.74
    4315   50.14     428     428     20.69
    4316   50.15     424   427.9     20.59
    4317   50.16     430   428.3     20.74
    4318   50.17     422   429.4     20.54
    4319   50.18     432   431.2     20.78
    4320   50.19     436   433.8     20.88
    4321   50.20     439   437.3     20.95
    4322   50.21     439   441.4     20.95
    4323   50.22     454   445.2     21.31
    4324   50.23     448   448.1     21.17
    4325   50.24     453   446.9     21.28
    4326   50.25     456     443     21.35
    4327   50.26     442   438.3     21.02
    4328   50.27     437     434     20.90
    4329   50.28     430   430.4     20.74
    4330   50.29     430   427.6     20.74
    4331   50.30     425   425.5     20.62
    4332   50.31     420   423.9     20.49
    4333   50.32     424   422.8     20.59
    4334   50.33     421     421     20.52
    4335   50.34     427   420.6     20.66
    4336   50.35     427   420.3     20.66
    4337   50.36     414     420     20.35
    4338   50.37     426   419.8     20.64
    4339   50.38     431   418.8     20.76
    4340   50.39     425   418.7     20.62
    4341   50.40     430   418.7     20.74
    4342   50.41     428   418.7     20.69
    4343   50.42     411   417.7     20.27
    4344   50.43     421   417.8     20.52
    4345   50.44     420   417.8     20.49
    4346   50.45     417   417.8     20.42
    4347   50.46     418   417.9     20.45
    4348   50.47     414   417.9     20.35
    4349   50.48     426     418     20.64
    4350   50.49     415     418     20.37
    4351   50.50     419   418.1     20.47
    4352   50.51     419   418.1     20.47
    4353   50.52     419   418.2     20.47
    4354   50.53     415   418.2     20.37
    4355   50.54     413   418.3     20.32
    4356   50.55     414   418.4     20.35
    4357   50.56     418   418.4     20.45
    4358   50.57     417   418.5     20.42
    4359   50.58     420   418.6     20.49
    4360   50.59     427   418.7     20.66
    4361   50.60     411   418.8     20.27
    4362   50.61     421   418.8     20.52
    4363   50.62     412     419     20.30
    4364   50.63     422   419.1     20.54
    4365   50.64     428   419.2     20.69
    4366   50.65     422   419.3     20.54
    4367   50.66     435   419.4     20.86
    4368   50.67     421   419.6     20.52
    4369   50.68     432   419.7     20.78
    4370   50.69     421   419.9     20.52
    4371   50.70     427     420     20.66
    4372   50.71     421   420.2     20.52
    4373   50.72     422   420.4     20.54
    4374   50.73     413   420.6     20.32
    4375   50.74     418   420.8     20.45
    4376   50.75     429   421.1     20.71
    4377   50.76     424   422.8     20.59
    4378   50.77     423   423.2     20.57
    4379   50.78     425   423.4     20.62
    4380   50.79     422   423.5     20.54
    4381   50.80     427   422.6     20.66
    4382   50.81     421     423     20.52
    4383   50.82     437   423.5     20.90
    4384   50.83     433   423.9     20.81
    4385   50.84     429   424.4     20.71
    4386   50.85     439     425     20.95
    4387   50.86     432   425.6     20.78
    4388   50.87     437   426.3     20.90
    4389   50.88     435   427.1     20.86
    4390   50.89     439   427.9     20.95
    4391   50.90     441   428.9     21.00
    4392   50.91     448     430     21.17
    4393   50.92     444   431.2     21.07
    4394   50.93     444   432.5     21.07
    4395   50.94     444   434.1     21.07
    4396   50.95     449   435.9     21.19
    4397   50.96     457   437.9     21.38
    4398   50.97     458   440.3     21.40
    4399   50.98     457   443.1     21.38
    4400   50.99     463   446.4     21.52
    4401   51.00     471   450.3     21.70
    4402   51.01     476   455.1     21.82
    4403   51.02     485     461     22.02
    4404   51.03     496   468.4     22.27
    4405   51.04     499     478     22.34
    4406   51.05     512   490.9     22.63
    4407   51.06     533   508.5     23.09
    4408   51.07     537   533.1     23.17
    4409   51.08     566   567.4     23.79
    4410   51.09     614   615.9     24.78
    4411   51.10     656   680.6     25.61
    4412   51.11     735     765     27.11
    4413   51.12     824     869     28.71
    4414   51.13     941   985.3     30.68
    4415   51.14    1080  1092.1     32.86
    4416   51.15    1195    1149     34.57
    4417   51.16    1180  1122.5     34.35
    4418   51.17    1104  1028.9     33.23
    4419   51.18     961   910.5     31.00
    4420   51.19     814   799.7     28.53
    4421   51.20     716     708     26.76
    4422   51.21     637   636.8     25.24
    4423   51.22     592   583.4     24.33
    4424   51.23     546   544.4     23.37
    4425   51.24     528   516.4     22.98
    4426   51.25     520   496.4     22.80
    4427   51.26     498   481.9     22.32
    4428   51.27     492   471.3     22.18
    4429   51.28     474   463.1     21.77
    4430   51.29     478   456.8     21.86
    4431   51.30     466   451.7     21.59
    4432   51.31     459   447.5     21.42
    4433   51.32     459     444     21.42
    4434   51.33     460     441     21.45
    4435   51.34     453   438.5     21.28
    4436   51.35     450   436.4     21.21
    4437   51.36     446   434.5     21.12
    4438   51.37     440   432.9     20.98
    4439   51.38     441   431.4     21.00
    4440   51.39     448   430.2     21.17
    4441   51.40     445   429.1     21.10
    4442   51.41     439   428.1     20.95
    4443   51.42     438   427.2     20.93
    4444   51.43     432   426.4     20.78
    4445   51.44     428   425.7     20.69
    4446   51.45     432   425.1     20.78
    4447   51.46     435   424.5     20.86
    4448   51.47     433     424     20.81
    4449   51.48     430   423.5     20.74
    4450   51.49     434     423     20.83
    4451   51.50     429   422.6     20.71
    4452   51.51     428   422.3     20.69
    4453   51.52     432   421.9     20.78
    4454   51.53     420   421.6     20.49
    4455   51.54     429   421.3     20.71
    4456   51.55     421   421.1     20.52
    4457   51.56     410   420.8     20.25
    4458   51.57     420   422.6     20.49
    4459   51.58     428   422.6     20.69
    4460   51.59     420   422.5     20.49
    4461   51.60     418   422.6     20.45
    4462   51.61     423   422.6     20.57
    4463   51.62     422   422.7     20.54
    4464   51.63     428   422.8     20.69
    4465   51.64     438     423     20.93
    4466   51.65     434   423.3     20.83
    4467   51.66     433   423.6     20.81
    4468   51.67     426     424     20.64
    4469   51.68     419   424.6     20.47
    4470   51.69     432   425.2     20.78
    4471   51.70     435   426.1     20.86
    4472   51.71     430   427.2     20.74
    4473   51.72     431   428.6     20.76
    4474   51.73     425   430.6     20.62
    4475   51.74     425   433.3     20.62
    4476   51.75     435   437.1     20.86
    4477   51.76     433   442.3     20.81
    4478   51.77     443   449.6     21.05
    4479   51.78     439   459.5     20.95
    4480   51.79     454   472.5     21.31
    4481   51.80     463   488.8     21.52
    4482   51.81     500   507.8     22.36
    4483   51.82     516   526.6     22.72
    4484   51.83     545   538.9     23.35
    4485   51.84     549   538.2     23.43
    4486   51.85     526   524.8     22.93
    4487   51.86     517   505.5     22.74
    4488   51.87     503   486.5     22.43
    4489   51.88     467   470.3     21.61
    4490   51.89     454   457.5     21.31
    4491   51.90     448   447.9     21.17
    4492   51.91     441   440.7     21.00
    4493   51.92     432   435.6     20.78
    4494   51.93     435   431.8     20.86
    4495   51.94     422   429.2     20.54
    4496   51.95     423   427.2     20.57
    4497   51.96     425   425.7     20.62
    4498   51.97     432   424.5     20.78
    4499   51.98     427   423.6     20.66
    4500   51.99     428   422.8     20.69
    4501   52.00     420   422.2     20.49
    4502   52.01     433   421.7     20.81
    4503   52.02     434   422.7     20.83
    4504   52.03     419   423.5     20.47
    4505   52.04     412   424.8     20.30
    4506   52.05     418   425.3     20.45
    4507   52.06     418   424.4     20.45
    4508   52.07     428   422.6     20.69
    4509   52.08     426   420.1     20.64
    4510   52.09     426   418.3     20.64
    4511   52.10     417   416.2     20.42
    4512   52.11     417   416.2     20.42
    4513   52.12     413   416.2     20.32
    4514   52.13     417   416.2     20.42
    4515   52.14     414   416.3     20.35
    4516   52.15     415   416.3     20.37
    4517   52.16     402   416.3     20.05
    4518   52.17     409   416.3     20.22
    4519   52.18     417   416.3     20.42
    4520   52.19     424   416.3     20.59
    4521   52.20     424   416.3     20.59
    4522   52.21     413   416.3     20.32
    4523   52.22     414   416.3     20.35
    4524   52.23     419   416.3     20.47
    4525   52.24     417   416.4     20.42
    4526   52.25     414   416.4     20.35
    4527   52.26     408   416.4     20.20
    4528   52.27     408   416.4     20.20
    4529   52.28     421   416.4     20.52
    4530   52.29     425   416.4     20.62
    4531   52.30     408   416.4     20.20
    4532   52.31     411   416.4     20.27
    4533   52.32     408   416.4     20.20
    4534   52.33     415   416.4     20.37
    4535   52.34     403   416.5     20.07
    4536   52.35     416   416.5     20.40
    4537   52.36     416   416.5     20.40
    4538   52.37     424   416.5     20.59
    4539   52.38     414   416.5     20.35
    4540   52.39     412   416.5     20.30
    4541   52.40     424   416.5     20.59
    4542   52.41     415   419.1     20.37
    4543   52.42     412   420.5     20.30
    4544   52.43     418     422     20.45
    4545   52.44     415   423.4     20.37
    4546   52.45     417   424.2     20.42
    4547   52.46     430   423.9     20.74
    4548   52.47     416   422.6     20.40
    4549   52.48     418   421.1     20.45
    4550   52.49     404   419.7     20.10
    4551   52.50     412   416.6     20.30
    4552   52.51     404   416.7     20.10
    4553   52.52     405   416.7     20.12
    4554   52.53     409   416.7     20.22
    4555   52.54     409   417.7     20.22
    4556   52.55     414   417.8     20.35
    4557   52.56     413   417.8     20.32
    4558   52.57     419   417.9     20.47
    4559   52.58     421     418     20.52
    4560   52.59     416   418.1     20.40
    4561   52.60     414   418.1     20.35
    4562   52.61     412   418.2     20.30
    4563   52.62     419   418.3     20.47
    4564   52.63     410   418.4     20.25
    4565   52.64     415   418.6     20.37
    4566   52.65     416   418.7     20.40
    4567   52.66     415   418.8     20.37
    4568   52.67     416     419     20.40
    4569   52.68     406   419.1     20.15
    4570   52.69     412   419.3     20.30
    4571   52.70     409   419.5     20.22
    4572   52.71     426   419.8     20.64
    4573   52.72     422     420     20.54
    4574   52.73     421   420.3     20.52
    4575   52.74     419   420.6     20.47
    4576   52.75     418     421     20.45
    4577   52.76     424   421.4     20.59
    4578   52.77     424   421.9     20.59
    4579   52.78     422   422.4     20.54
    4580   52.79     411     423     20.27
    4581   52.80     433   423.8     20.81
    4582   52.81     432   424.7     20.78
    4583   52.82     426   425.8     20.64
    4584   52.83     427   427.2     20.66
    4585   52.84     425     429     20.62
    4586   52.85     430   431.3     20.74
    4587   52.86     442   434.4     21.02
    4588   52.87     442   438.7     21.02
    4589   52.88     447   444.6     21.14
    4590   52.89     449   452.8     21.19
    4591   52.90     453   463.9     21.28
    4592   52.91     462   478.5     21.49
    4593   52.92     486     497     22.05
    4594   52.93     507   519.1     22.52
    4595   52.94     539   542.4     23.22
    4596   52.95     558   560.8     23.62
    4597   52.96     585   565.7     24.19
    4598   52.97     555   556.1     23.56
    4599   52.98     551   535.2     23.47
    4600   52.99     512   512.4     22.63
    4601   53.00     492     492     22.18
    4602   53.01     466     475     21.59
    4603   53.02     456   461.5     21.35
    4604   53.03     446   451.1     21.12
    4605   53.04     436   443.3     20.88
    4606   53.05     434   436.7     20.83
    4607   53.06     421     433     20.52
    4608   53.07     424   430.3     20.59
    4609   53.08     419   428.4     20.47
    4610   53.09     418   426.8     20.45
    4611   53.10     423   425.6     20.57
    4612   53.11     424   424.6     20.59
    4613   53.12     418   423.8     20.45
    4614   53.13     423   423.2     20.57
    4615   53.14     422   422.6     20.54
    4616   53.15     423   422.1     20.57
    4617   53.16     417   421.7     20.42
    4618   53.17     420   421.3     20.49
    4619   53.18     425     421     20.62
    4620   53.19     424   420.8     20.59
    4621   53.20     409   420.5     20.22
    4622   53.21     411   420.3     20.27
    4623   53.22     411   420.1     20.27
    4624   53.23     420     420     20.49
    4625   53.24     408   419.8     20.20
    4626   53.25     428   419.7     20.69
    4627   53.26     417   419.6     20.42
    4628   53.27     417   419.5     20.42
    4629   53.28     410   421.4     20.25
    4630   53.29     408   421.5     20.20
    4631   53.30     422   421.5     20.54
    4632   53.31     410   421.6     20.25
    4633   53.32     418   421.7     20.45
    4634   53.33     420   421.8     20.49
    4635   53.34     424     422     20.59
    4636   53.35     411   422.2     20.27
    4637   53.36     419   422.4     20.47
    4638   53.37     430   422.6     20.74
    4639   53.38     423   422.9     20.57
    4640   53.39     435   423.3     20.86
    4641   53.40     425   423.8     20.62
    4642   53.41     421   424.4     20.52
    4643   53.42     425     425     20.62
    4644   53.43     430   425.7     20.74
    4645   53.44     420   426.6     20.49
    4646   53.45     428   427.6     20.69
    4647   53.46     420   428.7     20.49
    4648   53.47     438   430.1     20.93
    4649   53.48     435   431.8     20.86
    4650   53.49     435   433.8     20.86
    4651   53.50     433   436.4     20.81
    4652   53.51     441   439.7     21.00
    4653   53.52     444   444.1     21.07
    4654   53.53     456   450.2     21.35
    4655   53.54     448   458.5     21.17
    4656   53.55     470     472     21.68
    4657   53.56     471   488.9     21.70
    4658   53.57     498   510.7     22.32
    4659   53.58     510   537.4     22.58
    4660   53.59     535   569.8     23.13
    4661   53.60     581   607.2     24.10
    4662   53.61     641   642.9     25.32
    4663   53.62     670   666.1     25.88
    4664   53.63     668   663.5     25.85
    4665   53.64     655   636.2     25.59
    4666   53.65     604   597.6     24.58
    4667   53.66     565   559.5     23.77
    4668   53.67     513     527     22.65
    4669   53.68     501   501.3     22.38
    4670   53.69     471   481.6     21.70
    4671   53.70     459     467     21.42
    4672   53.71     446   456.3     21.12
    4673   53.72     441   448.7     21.00
    4674   53.73     444   443.1     21.07
    4675   53.74     444     439     21.07
    4676   53.75     433     436     20.81
    4677   53.76     435   433.6     20.86
    4678   53.77     439   434.1     20.95
    4679   53.78     427   433.3     20.66
    4680   53.79     435     433     20.86
    4681   53.80     434   433.2     20.83
    4682   53.81     427   433.8     20.66
    4683   53.82     429   434.8     20.71
    4684   53.83     425     436     20.62
    4685   53.84     433   436.5     20.81
    4686   53.85     437     436     20.90
    4687   53.86     443   434.3     21.05
    4688   53.87     432   431.2     20.78
    4689   53.88     419   429.1     20.47
    4690   53.89     427   427.3     20.66
    4691   53.90     412   425.8     20.30
    4692   53.91     418   424.6     20.45
    4693   53.92     415   423.8     20.37
    4694   53.93     416   421.2     20.40
    4695   53.94     419   421.1     20.47
    4696   53.95     420     421     20.49
    4697   53.96     413   420.9     20.32
    4698   53.97     417   420.8     20.42
    4699   53.98     414   418.8     20.35
    4700   53.99     418   418.8     20.45
    4701   54.00     411   418.8     20.27
    4702   54.01     416   418.8     20.40
    4703   54.02     407   418.8     20.17
    4704   54.03     423   418.9     20.57
    4705   54.04     416   418.9     20.40
    4706   54.05     418   418.9     20.45
    4707   54.06     416   418.9     20.40
    4708   54.07     411   418.9     20.27
    4709   54.08     417   418.9     20.42
    4710   54.09     427     419     20.66
    4711   54.10     411     419     20.27
    4712   54.11     421     419     20.52
    4713   54.12     421     419     20.52
    4714   54.13     421     419     20.52
    4715   54.14     418     419     20.45
    4716   54.15     404     419     20.10
    4717   54.16     424   419.1     20.59
    4718   54.17     417   421.1     20.42
    4719   54.18     417   421.2     20.42
    4720   54.19     408   421.3     20.20
    4721   54.20     407   421.3     20.17
    4722   54.21     419   421.5     20.47
    4723   54.22     411   421.6     20.27
    4724   54.23     419   421.7     20.47
    4725   54.24     413   421.8     20.32
    4726   54.25     413   421.9     20.32
    4727   54.26     418     422     20.45
    4728   54.27     409   422.2     20.22
    4729   54.28     422   422.3     20.54
    4730   54.29     427   422.5     20.66
    4731   54.30     418   422.7     20.45
    4732   54.31     416   422.8     20.40
    4733   54.32     411     423     20.27
    4734   54.33     418   423.2     20.45
    4735   54.34     421   423.5     20.52
    4736   54.35     415   423.7     20.37
    4737   54.36     420     424     20.49
    4738   54.37     420   424.2     20.49
    4739   54.38     423   424.5     20.57
    4740   54.39     432   424.9     20.78
    4741   54.40     434   425.2     20.83
    4742   54.41     424   425.6     20.59
    4743   54.42     423     426     20.57
    4744   54.43     420   426.5     20.49
    4745   54.44     431     427     20.76
    4746   54.45     442   427.6     21.02
    4747   54.46     430   432.9     20.74
    4748   54.47     436   434.7     20.88
    4749   54.48     436   434.8     20.88
    4750   54.49     425   430.6     20.62
    4751   54.50     431   431.6     20.76
    4752   54.51     449   432.7     21.19
    4753   54.52     438     434     20.93
    4754   54.53     434   435.5     20.83
    4755   54.54     435   437.2     20.86
    4756   54.55     449   439.3     21.19
    4757   54.56     449   441.7     21.19
    4758   54.57     451   444.5     21.24
    4759   54.58     450     448     21.21
    4760   54.59     460   452.2     21.45
    4761   54.60     452   457.7     21.26
    4762   54.61     462   464.7     21.49
    4763   54.62     463   474.2     21.52
    4764   54.63     483   487.2     21.98
    4765   54.64     489     505     22.11
    4766   54.65     520   529.4     22.80
    4767   54.66     537   562.4     23.17
    4768   54.67     576   606.1     24.00
    4769   54.68     612     662     24.74
    4770   54.69     681     730     26.10
    4771   54.70     759   805.4     27.55
    4772   54.71     840   873.2     28.98
    4773   54.72     915   907.7     30.25
    4774   54.73     920   890.4     30.33
    4775   54.74     867   830.6     29.44
    4776   54.75     804   754.9     28.35
    4777   54.76     695     683     26.36
    4778   54.77     619   622.6     24.88
    4779   54.78     569   574.9     23.85
    4780   54.79     523   538.6     22.87
    4781   54.80     502   511.6     22.41
    4782   54.81     489   491.9     22.11
    4783   54.82     471   477.7     21.70
    4784   54.83     463   467.3     21.52
    4785   54.84     450   459.6     21.21
    4786   54.85     456   453.8     21.35
    4787   54.86     447   449.3     21.14
    4788   54.87     453   445.6     21.28
    4789   54.88     452   442.7     21.26
    4790   54.89     440   440.2     20.98
    4791   54.90     451   438.1     21.24
    4792   54.91     441   436.3     21.00
    4793   54.92     436   434.8     20.88
    4794   54.93     441   433.5     21.00
    4795   54.94     432   432.3     20.78
    4796   54.95     441   431.3     21.00
    4797   54.96     442   430.4     21.02
    4798   54.97     437   429.6     20.90
    4799   54.98     423     429     20.57
    4800   54.99     442   428.3     21.02
    4801   55.00     426   427.8     20.64
    4802   55.01     421   427.3     20.52
    4803   55.02     423   426.8     20.57
    4804   55.03     422   426.4     20.54
    4805   55.04     420     426     20.49
    4806   55.05     422   425.7     20.54
    4807   55.06     421   426.5     20.52
    4808   55.07     424   426.2     20.59
    4809   55.08     419   426.1     20.47
    4810   55.09     430   425.9     20.74
    4811   55.10     422   425.8     20.54
    4812   55.11     422   425.7     20.54
    4813   55.12     418   426.9     20.45
    4814   55.13     425   427.5     20.62
    4815   55.14     430   428.5     20.74
    4816   55.15     427   430.6     20.66
    4817   55.16     431   431.7     20.76
    4818   55.17     434   432.4     20.83
    4819   55.18     441   432.3     21.00
    4820   55.19     441   431.7     21.00
    4821   55.20     429     431     20.71
    4822   55.21     428   430.5     20.69
    4823   55.22     431   430.4     20.76
    4824   55.23     440   429.8     20.98
    4825   55.24     436   430.8     20.88
    4826   55.25     436   432.1     20.88
    4827   55.26     429   433.7     20.71
    4828   55.27     423     436     20.57
    4829   55.28     428   437.2     20.69
    4830   55.29     441   441.5     21.00
    4831   55.30     433   447.5     20.81
    4832   55.31     435   455.6     20.86
    4833   55.32     461   466.2     21.47
    4834   55.33     465   479.9     21.56
    4835   55.34     477   496.7     21.84
    4836   55.35     489   515.5     22.11
    4837   55.36     520   533.2     22.80
    4838   55.37     529   543.5     23.00
    4839   55.38     538   541.2     23.19
    4840   55.39     525   527.5     22.91
    4841   55.40     502   508.7     22.41
    4842   55.41     501   490.2     22.38
    4843   55.42     477   474.5     21.84
    4844   55.43     456   461.9     21.35
    4845   55.44     449   452.2     21.19
    4846   55.45     436     445     20.88
    4847   55.46     434   439.7     20.83
    4848   55.47     426   435.9     20.64
    4849   55.48     416   433.1     20.40
    4850   55.49     425   432.2     20.62
    4851   55.50     427   430.9     20.66
    4852   55.51     436   430.1     20.88
    4853   55.52     418   429.7     20.45
    4854   55.53     415   429.6     20.37
    4855   55.54     426   429.9     20.64
    4856   55.55     420   430.5     20.49
    4857   55.56     429   431.5     20.71
    4858   55.57     431   432.6     20.76
    4859   55.58     427   433.5     20.66
    4860   55.59     427   433.6     20.66
    4861   55.60     412   431.8     20.30
    4862   55.61     429   430.3     20.71
    4863   55.62     420   428.7     20.49
    4864   55.63     416   427.2     20.40
    4865   55.64     415   425.9     20.37
    4866   55.65     427   424.9     20.66
    4867   55.66     419   424.2     20.47
    4868   55.67     423   423.6     20.57
    4869   55.68     419   423.2     20.47
    4870   55.69     416   422.8     20.40
    4871   55.70     420   420.7     20.49
    4872   55.71     410   420.7     20.25
    4873   55.72     414   420.7     20.35
    4874   55.73     404   420.7     20.10
    4875   55.74     407   420.7     20.17
    4876   55.75     406   420.7     20.15
    4877   55.76     417   420.7     20.42
    4878   55.77     415   420.7     20.37
    4879   55.78     411   420.7     20.27
    4880   55.79     410   420.7     20.25
    4881   55.80     432   420.7     20.78
    4882   55.81     427   420.8     20.66
    4883   55.82     421   420.8     20.52
    4884   55.83     417   420.8     20.42
    4885   55.84     415   420.8     20.37
    4886   55.85     416   420.8     20.40
    4887   55.86     429   420.8     20.71
    4888   55.87     419   420.8     20.47
    4889   55.88     411   420.8     20.27
    4890   55.89     409   420.8     20.22
    4891   55.90     419   420.8     20.47
    4892   55.91     412   420.8     20.30
    4893   55.92     410     423     20.25
    4894   55.93     415   426.8     20.37
    4895   55.94     417   430.6     20.42
    4896   55.95     408   431.4     20.20
    4897   55.96     424   429.4     20.59
    4898   55.97     425   426.6     20.62
    4899   55.98     422   423.6     20.54
    4900   55.99     424     422     20.59
    4901   56.00     414   422.1     20.35
    4902   56.01     422   422.2     20.54
    4903   56.02     409   422.2     20.22
    4904   56.03     412   422.3     20.30
    4905   56.04     413   422.4     20.32
    4906   56.05     417   422.5     20.42
    4907   56.06     409   422.5     20.22
    4908   56.07     425   422.6     20.62
    4909   56.08     422   422.7     20.54
    4910   56.09     411   422.8     20.27
    4911   56.10     421     423     20.52
    4912   56.11     417   423.1     20.42
    4913   56.12     415   423.2     20.37
    4914   56.13     420   423.4     20.49
    4915   56.14     414   423.5     20.35
    4916   56.15     414   423.7     20.35
    4917   56.16     419   423.9     20.47
    4918   56.17     423   424.1     20.57
    4919   56.18     410   424.4     20.25
    4920   56.19     421   424.7     20.52
    4921   56.20     412     426     20.30
    4922   56.21     417   426.5     20.42
    4923   56.22     416   426.9     20.40
    4924   56.23     429   427.5     20.71
    4925   56.24     413   428.1     20.32
    4926   56.25     424   428.9     20.59
    4927   56.26     428   429.7     20.69
    4928   56.27     423   430.7     20.57
    4929   56.28     419   431.8     20.47
    4930   56.29     436   433.2     20.88
    4931   56.30     427   434.8     20.66
    4932   56.31     434   436.8     20.83
    4933   56.32     434   439.3     20.83
    4934   56.33     443   442.5     21.05
    4935   56.34     439   446.8     20.95
    4936   56.35     438   452.5     20.93
    4937   56.36     444   460.3     21.07
    4938   56.37     459     471     21.42
    4939   56.38     462   485.6     21.49
    4940   56.39     473   504.9     21.75
    4941   56.40     491     530     22.16
    4942   56.41     526   561.3     22.93
    4943   56.42     574   598.1     23.96
    4944   56.43     606   636.2     24.62
    4945   56.44     637   665.5     25.24
    4946   56.45     677   673.4     26.02
    4947   56.46     670   655.3     25.88
    4948   56.47     622   620.5     24.94
    4949   56.48     607   581.9     24.64
    4950   56.49     562   546.9     23.71
    4951   56.50     517   518.1     22.74
    4952   56.51     488   495.5     22.09
    4953   56.52     482   478.4     21.95
    4954   56.53     465   465.6     21.56
    4955   56.54     448   456.3     21.17
    4956   56.55     450   449.5     21.21
    4957   56.56     437   444.5     20.90
    4958   56.57     423   440.8     20.57
    4959   56.58     434   437.9     20.83
    4960   56.59     429   435.6     20.71
    4961   56.60     430   433.8     20.74
    4962   56.61     438   432.3     20.93
    4963   56.62     427   431.1     20.66
    4964   56.63     430     430     20.74
    4965   56.64     429   429.1     20.71
    4966   56.65     420   428.3     20.49
    4967   56.66     424   427.6     20.59
    4968   56.67     423     427     20.57
    4969   56.68     418   426.5     20.45
    4970   56.69     421     426     20.52
    4971   56.70     420   425.6     20.49
    4972   56.71     420   424.3     20.49
    4973   56.72     430   425.7     20.74
    4974   56.73     424   426.3     20.59
    4975   56.74     419   428.7     20.47
    4976   56.75     417   429.7     20.42
    4977   56.76     430   429.9     20.74
    4978   56.77     423   429.2     20.57
    4979   56.78     423   427.9     20.57
    4980   56.79     425   426.2     20.62
    4981   56.80     419   426.9     20.47
    4982   56.81     420   427.3     20.49
    4983   56.82     436     428     20.88
    4984   56.83     438   427.5     20.93
    4985   56.84     431   425.3     20.76
    4986   56.85     424   423.7     20.59
    4987   56.86     419   423.7     20.47
    4988   56.87     409   423.8     20.22
    4989   56.88     422   423.9     20.54
    4990   56.89     429   424.1     20.71
    4991   56.90     427   424.2     20.66
    4992   56.91     419   424.4     20.47
    4993   56.92     428   424.7     20.69
    4994   56.93     427     425     20.66
    4995   56.94     420   425.4     20.49
    4996   56.95     415     426     20.37
    4997   56.96     408   425.6     20.20
    4998   56.97     417   426.6     20.42
    4999   56.98     423     429     20.57
    5000   56.99     424   430.9     20.59
    5001   57.00     431   433.5     20.76
    5002   57.01     423   437.1     20.57
    5003   57.02     431     442     20.76
    5004   57.03     431   448.4     20.76
    5005   57.04     446   456.6     21.12
    5006   57.05     444   466.8     21.07
    5007   57.06     470   478.6     21.68
    5008   57.07     478   490.3     21.86
    5009   57.08     480   498.7     21.91
    5010   57.09     498   499.8     22.32
    5011   57.10     498     493     22.32
    5012   57.11     480   481.7     21.91
    5013   57.12     480   469.6     21.91
    5014   57.13     450   458.9     21.21
    5015   57.14     449   450.1     21.19
    5016   57.15     432   443.2     20.78
    5017   57.16     433   437.9     20.81
    5018   57.17     433   434.1     20.81
    5019   57.18     424   431.2     20.59
    5020   57.19     431   429.1     20.76
    5021   57.20     426   427.6     20.64
    5022   57.21     428   425.5     20.69
    5023   57.22     419   424.8     20.47
    5024   57.23     420   424.1     20.49
    5025   57.24     425     425     20.62
    5026   57.25     425     425     20.62
    5027   57.26     422   425.2     20.54
    5028   57.27     419   425.5     20.47
    5029   57.28     410   425.8     20.25
    5030   57.29     421   426.1     20.52
    5031   57.30     425     426     20.62
    5032   57.31     418   425.5     20.45
    5033   57.32     414   424.8     20.35
    5034   57.33     423   424.1     20.57
    5035   57.34     415   423.4     20.37
    5036   57.35     416   422.8     20.40
    5037   57.36     420   421.1     20.49
    5038   57.37     422     421     20.54
    5039   57.38     413   420.9     20.32
    5040   57.39     424   419.9     20.59
    5041   57.40     420   419.9     20.49
    5042   57.41     411   419.9     20.27
    5043   57.42     431   419.9     20.76
    5044   57.43     425   419.8     20.62
    5045   57.44     410   419.8     20.25
    5046   57.45     419   419.8     20.47
    5047   57.46     412   419.8     20.30
    5048   57.47     424   420.8     20.59
    5049   57.48     424   420.8     20.59
    5050   57.49     421   420.8     20.52
    5051   57.50     413   420.8     20.32
    5052   57.51     414   420.9     20.35
    5053   57.52     412   420.9     20.30
    5054   57.53     415   420.9     20.37
    5055   57.54     412   420.9     20.30
    5056   57.55     406   420.9     20.15
    5057   57.56     406     421     20.15
    5058   57.57     409     421     20.22
    5059   57.58     408     421     20.20
    5060   57.59     404   421.1     20.10
    5061   57.60     413   421.1     20.32
    5062   57.61     415   421.1     20.37
    5063   57.62     419   421.2     20.47
    5064   57.63     413   421.2     20.32
    5065   57.64     403   421.3     20.07
    5066   57.65     406   421.3     20.15
    5067   57.66     410   421.4     20.25
    5068   57.67     408   422.5     20.20
    5069   57.68     403   422.6     20.07
    5070   57.69     406   422.7     20.15
    5071   57.70     409   422.9     20.22
    5072   57.71     416     423     20.40
    5073   57.72     426   423.2     20.64
    5074   57.73     428   423.3     20.69
    5075   57.74     427   423.5     20.66
    5076   57.75     420   423.7     20.49
    5077   57.76     416   423.9     20.40
    5078   57.77     412   424.1     20.30
    5079   57.78     421   424.4     20.52
    5080   57.79     421   424.7     20.52
    5081   57.80     429     425     20.71
    5082   57.81     425   425.3     20.62
    5083   57.82     423   425.7     20.57
    5084   57.83     421   426.1     20.52
    5085   57.84     431   426.5     20.76
    5086   57.85     419     427     20.47
    5087   57.86     418   427.5     20.45
    5088   57.87     430   428.1     20.74
    5089   57.88     429   428.8     20.71
    5090   57.89     428   429.6     20.69
    5091   57.90     435   430.4     20.86
    5092   57.91     432   431.4     20.78
    5093   57.92     433   432.5     20.81
    5094   57.93     450   433.7     21.21
    5095   57.94     447   435.2     21.14
    5096   57.95     431   436.8     20.76
    5097   57.96     446   438.8     21.12
    5098   57.97     448     441     21.17
    5099   57.98     447   443.7     21.14
    5100   57.99     457   446.9     21.38
    5101   58.00     474   450.9     21.77
    5102   58.01     451   455.8     21.24
    5103   58.02     483   462.1     21.98
    5104   58.03     478   470.3     21.86
    5105   58.04     475   481.4     21.79
    5106   58.05     497   496.5     22.29
    5107   58.06     508   517.1     22.54
    5108   58.07     518   544.8     22.76
    5109   58.08     559   581.7     23.64
    5110   58.09     588   629.4     24.25
    5111   58.10     635   689.3     25.20
    5112   58.11     704   760.3     26.53
    5113   58.12     791   836.1     28.12
    5114   58.13     879   899.8     29.65
    5115   58.14     951   926.7     30.84
    5116   58.15     956   902.7     30.92
    5117   58.16     892   840.1     29.87
    5118   58.17     830   763.9     28.81
    5119   58.18     737   691.9     27.15
    5120   58.19     656   631.1     25.61
    5121   58.20     591   582.6     24.31
    5122   58.21     540   545.2     23.24
    5123   58.22     513   517.1     22.65
    5124   58.23     497   496.3     22.29
    5125   58.24     477     481     21.84
    5126   58.25     481   469.8     21.93
    5127   58.26     467   461.4     21.61
    5128   58.27     452     455     21.26
    5129   58.28     472   450.1     21.73
    5130   58.29     453   446.1     21.28
    5131   58.30     451   442.8     21.24
    5132   58.31     444   440.1     21.07
    5133   58.32     445   437.8     21.10
    5134   58.33     446   435.8     21.12
    5135   58.34     438   434.1     20.93
    5136   58.35     444   432.6     21.07
    5137   58.36     431   431.3     20.76
    5138   58.37     437   430.2     20.90
    5139   58.38     426   429.1     20.64
    5140   58.39     421   428.2     20.52
    5141   58.40     416   427.4     20.40
    5142   58.41     425   426.7     20.62
    5143   58.42     425   426.1     20.62
    5144   58.43     425   425.5     20.62
    5145   58.44     415   424.9     20.37
    5146   58.45     427   424.5     20.66
    5147   58.46     417     424     20.42
    5148   58.47     423   423.6     20.57
    5149   58.48     434   423.2     20.83
    5150   58.49     419   424.9     20.47
    5151   58.50     422   424.7     20.54
    5152   58.51     421   424.5     20.52
    5153   58.52     417   424.5     20.42
    5154   58.53     433   424.4     20.81
    5155   58.54     422   424.4     20.54
    5156   58.55     432   424.4     20.78
    5157   58.56     425   424.5     20.62
    5158   58.57     436   424.7     20.88
    5159   58.58     423   424.9     20.57
    5160   58.59     410   425.2     20.25
    5161   58.60     423   425.5     20.57
    5162   58.61     424     426     20.59
    5163   58.62     413   425.7     20.32
    5164   58.63     433   426.6     20.81
    5165   58.64     432   427.7     20.78
    5166   58.65     439   429.2     20.95
    5167   58.66     438   431.2     20.93
    5168   58.67     445   433.9     21.10
    5169   58.68     446   437.7     21.12
    5170   58.69     438   442.8     20.93
    5171   58.70     439   449.7     20.95
    5172   58.71     448   458.8     21.17
    5173   58.72     451   470.4     21.24
    5174   58.73     460   484.8     21.45
    5175   58.74     492   501.4     22.18
    5176   58.75     508   517.9     22.54
    5177   58.76     519   529.9     22.78
    5178   58.77     532   532.1     23.07
    5179   58.78     536   523.2     23.15
    5180   58.79     523   507.5     22.87
    5181   58.80     503   490.3     22.43
    5182   58.81     487   474.7     22.07
    5183   58.82     461   460.9     21.47
    5184   58.83     452   450.8     21.26
    5185   58.84     447     443     21.14
    5186   58.85     438   437.2     20.93
    5187   58.86     423   432.8     20.57
    5188   58.87     430   429.7     20.74
    5189   58.88     418   427.3     20.45
    5190   58.89     421   425.5     20.52
    5191   58.90     420   424.2     20.49
    5192   58.91     429   423.1     20.71
    5193   58.92     426   422.2     20.64
    5194   58.93     425   421.5     20.62
    5195   58.94     422   420.8     20.54
    5196   58.95     418   420.3     20.45
    5197   58.96     420   419.9     20.49
    5198   58.97     424   419.5     20.59
    5199   58.98     420   419.1     20.49
    5200   58.99     420   418.8     20.49
    5201   59.00     417   418.5     20.42
    5202   59.01     419   418.3     20.47
    5203   59.02     411     418     20.27
    5204   59.03     406   417.8     20.15
    5205   59.04     414   417.6     20.35
    5206   59.05     411   415.6     20.27
    5207   59.06     413   415.5     20.32
    5208   59.07     413   415.5     20.32
    5209   59.08     416   415.5     20.40
    5210   59.09     411   415.4     20.27
    5211   59.10     418   417.3     20.45
    5212   59.11     417   417.6     20.42
    5213   59.12     420   417.2     20.49
    5214   59.13     413   415.3     20.32
    5215   59.14     414   415.2     20.35
    5216   59.15     421   415.2     20.52
    5217   59.16     412   415.2     20.30
    5218   59.17     411   415.1     20.27
    5219   59.18     417   415.1     20.42
    5220   59.19     412   415.1     20.30
    5221   59.20     402     415     20.05
    5222   59.21     405     415     20.12
    5223   59.22     409   414.9     20.22
    5224   59.23     408   414.9     20.20
    5225   59.24     399   414.9     19.97
    5226   59.25     408   414.8     20.20
    5227   59.26     411   414.8     20.27
    5228   59.27     402   414.7     20.05
    5229   59.28     405   414.7     20.12
    5230   59.29     410   414.7     20.25
    5231   59.30     407   414.7     20.17
    5232   59.31     417   414.8     20.42
    5233   59.32     407   414.8     20.17
    5234   59.33     404   414.9     20.10
    5235   59.34     409   414.9     20.22
    5236   59.35     415   414.8     20.37
    5237   59.36     409   415.8     20.22
    5238   59.37     403   415.7     20.07
    5239   59.38     409   415.6     20.22
    5240   59.39     416   415.6     20.40
    5241   59.40     423   415.5     20.57
    5242   59.41     423   415.5     20.57
    5243   59.42     424   415.5     20.59
    5244   59.43     416   415.5     20.40
    5245   59.44     401   415.6     20.02
    5246   59.45     406   415.6     20.15
    5247   59.46     415   415.7     20.37
    5248   59.47     412   415.7     20.30
    5249   59.48     419   415.8     20.47
    5250   59.49     419   415.9     20.47
    5251   59.50     418     416     20.45
    5252   59.51     426   416.1     20.64
    5253   59.52     420   416.2     20.49
    5254   59.53     421   416.3     20.52
    5255   59.54     415   416.5     20.37
    5256   59.55     412   416.7     20.30
    5257   59.56     421   416.9     20.52
    5258   59.57     420   417.1     20.49
    5259   59.58     413   417.4     20.32
    5260   59.59     413   417.7     20.32
    5261   59.60     394   418.1     19.85
    5262   59.61     413   418.5     20.32
    5263   59.62     410     419     20.25
    5264   59.63     416   419.6     20.40
    5265   59.64     429   420.3     20.71
    5266   59.65     420   421.2     20.49
    5267   59.66     425   422.3     20.62
    5268   59.67     429   423.6     20.71
    5269   59.68     429   425.3     20.71
    5270   59.69     438   427.6     20.93
    5271   59.70     426   430.6     20.64
    5272   59.71     431   434.7     20.76
    5273   59.72     429   440.3     20.71
    5274   59.73     436   447.8     20.88
    5275   59.74     454   457.7     21.31
    5276   59.75     455   470.6     21.33
    5277   59.76     465   486.8     21.56
    5278   59.77     487   506.1     22.07
    5279   59.78     514     527     22.67
    5280   59.79     546   545.5     23.37
    5281   59.80     553   555.2     23.52
    5282   59.81     557   551.1     23.60
    5283   59.82     546   535.4     23.37
    5284   59.83     523   514.6     22.87
    5285   59.84     500   494.2     22.36
    5286   59.85     487   476.5     22.07
    5287   59.86     454   462.1     21.31
    5288   59.87     448   450.9     21.17
    5289   59.88     433   442.3     20.81
    5290   59.89     421   435.9     20.52
    5291   59.90     423   431.2     20.57
    5292   59.91     423   427.7     20.57
    5293   59.92     419   425.1     20.47
    5294   59.93     409   423.1     20.22
    5295   59.94     420   421.5     20.49
    5296   59.95     420   420.3     20.49
    5297   59.96     423   419.2     20.57
    5298   59.97     421   418.4     20.52
    5299   59.98     413   417.7     20.32
    5300   59.99     416     417     20.40
    5301   60.00     409   416.5     20.22
    5302   60.01     409     416     20.22
    5303   60.02     417   415.6     20.42
    5304   60.03     413   415.2     20.32
    5305   60.04     402   414.9     20.05
    5306   60.05     406   414.6     20.15
    5307   60.06     414   414.3     20.35
    5308   60.07     409     414     20.22
    5309   60.08     407   413.8     20.17
    5310   60.09     413   413.6     20.32
    5311   60.10     407   413.4     20.17
    5312   60.11     411   413.2     20.27
    5313   60.12     411   413.1     20.27
    5314   60.13     408   412.9     20.20
    5315   60.14     409   412.7     20.22
    5316   60.15     411   412.6     20.27
    5317   60.16     401   412.5     20.02
    5318   60.17     396   412.3     19.90
    5319   60.18     412   412.2     20.30
    5320   60.19     406   412.1     20.15
    5321   60.20     419     412     20.47
    5322   60.21     412   411.9     20.30
    5323   60.22     407   411.8     20.17
    5324   60.23     409   411.7     20.22
    5325   60.24     407   412.6     20.17
    5326   60.25     394   411.7     19.85
    5327   60.26     401   411.8     20.02
    5328   60.27     408   411.9     20.20
    5329   60.28     413   412.1     20.32
    5330   60.29     395   412.3     19.87
    5331   60.30     411   412.6     20.27
    5332   60.31     405     413     20.12
    5333   60.32     410   413.5     20.25
    5334   60.33     399   414.3     19.97
    5335   60.34     399   415.3     19.97
    5336   60.35     411   416.7     20.27
    5337   60.36     411   418.6     20.27
    5338   60.37     411   420.9     20.27
    5339   60.38     413   423.9     20.32
    5340   60.39     436   427.3     20.88
    5341   60.40     424   430.7     20.59
    5342   60.41     434   433.3     20.83
    5343   60.42     438     434     20.93
    5344   60.43     431   432.4     20.76
    5345   60.44     428   429.2     20.69
    5346   60.45     423   425.6     20.57
    5347   60.46     419   422.2     20.47
    5348   60.47     419   419.4     20.47
    5349   60.48     423   417.2     20.57
    5350   60.49     414   417.3     20.35
    5351   60.50     406   417.1     20.15
    5352   60.51     413   416.8     20.32
    5353   60.52     411   415.7     20.27
    5354   60.53     421     414     20.52
    5355   60.54     423   412.5     20.57
    5356   60.55     419   412.4     20.47
    5357   60.56     418   412.5     20.45
    5358   60.57     421   412.8     20.52
    5359   60.58     418   416.3     20.45
    5360   60.59     423   417.7     20.57
    5361   60.60     421   418.3     20.52
    5362   60.61     421   419.8     20.52
    5363   60.62     426   420.6     20.64
    5364   60.63     422   420.3     20.54
    5365   60.64     412     419     20.30
    5366   60.65     418   417.2     20.45
    5367   60.66     410   415.5     20.25
    5368   60.67     412     414     20.30
    5369   60.68     408   410.6     20.20
    5370   60.69     419   410.1     20.47
    5371   60.70     403   409.7     20.07
    5372   60.71     409   408.4     20.22
    5373   60.72     404   408.3     20.10
    5374   60.73     409   408.3     20.22
    5375   60.74     409   408.2     20.22
    5376   60.75     415   408.2     20.37
    5377   60.76     411   408.1     20.27
    5378   60.77     408   408.1     20.20
    5379   60.78     413     408     20.32
    5380   60.79     399     408     19.97
    5381   60.80     415   407.9     20.37
    5382   60.81     405   407.9     20.12
    5383   60.82     405   407.8     20.12
    5384   60.83     408   407.8     20.20
    5385   60.84     408   407.7     20.20
    5386   60.85     410   409.9     20.25
    5387   60.86     402     410     20.05
    5388   60.87     393     410     19.82
    5389   60.88     407   409.8     20.17
    5390   60.89     411   408.6     20.27
    5391   60.90     406   408.6     20.15
    5392   60.91     402   408.6     20.05
    5393   60.92     391   408.6     19.77
    5394   60.93     409   408.6     20.22
    5395   60.94     387   408.6     19.67
    5396   60.95     405   408.7     20.12
    5397   60.96     410   408.7     20.25
    5398   60.97     405   408.7     20.12
    5399   60.98     409   408.7     20.22
    5400   60.99     404   408.7     20.10
    5401   61.00     398   408.8     19.95
    5402   61.01     409   408.8     20.22
    5403   61.02     408   408.8     20.20
    5404   61.03     407   408.9     20.17
    5405   61.04     400     409     20.00
    5406   61.05     407     409     20.17
    5407   61.06     407   409.1     20.17
    5408   61.07     405   409.2     20.12
    5409   61.08     403   409.3     20.07
    5410   61.09     413   409.4     20.32
    5411   61.10     409   409.5     20.22
    5412   61.11     405   409.6     20.12
    5413   61.12     413   409.8     20.32
    5414   61.13     397     410     19.92
    5415   61.14     411   410.2     20.27
    5416   61.15     406   410.4     20.15
    5417   61.16     410   410.6     20.25
    5418   61.17     418   410.9     20.45
    5419   61.18     414   411.2     20.35
    5420   61.19     409   411.6     20.22
    5421   61.20     420     412     20.49
    5422   61.21     414   412.5     20.35
    5423   61.22     411     413     20.27
    5424   61.23     421   413.7     20.52
    5425   61.24     420   414.4     20.49
    5426   61.25     416   415.3     20.40
    5427   61.26     421   416.3     20.52
    5428   61.27     426   417.5     20.64
    5429   61.28     435   418.9     20.86
    5430   61.29     431   420.6     20.76
    5431   61.30     440   422.8     20.98
    5432   61.31     442   425.5     21.02
    5433   61.32     451   429.8     21.24
    5434   61.33     448   435.1     21.17
    5435   61.34     438   441.9     20.93
    5436   61.35     459   452.6     21.42
    5437   61.36     462     464     21.49
    5438   61.37     462   478.2     21.49
    5439   61.38     485   497.7     22.02
    5440   61.39     505   520.6     22.47
    5441   61.40     527   551.1     22.96
    5442   61.41     561   585.7     23.69
    5443   61.42     609   619.4     24.68
    5444   61.43     631     643     25.12
    5445   61.44     662   646.3     25.73
    5446   61.45     667   627.5     25.83
    5447   61.46     633   595.3     25.16
    5448   61.47     592     560     24.33
    5449   61.48     544   527.9     23.32
    5450   61.49     523   501.1     22.87
    5451   61.50     474   479.7     21.77
    5452   61.51     474   463.1     21.77
    5453   61.52     451   450.5     21.24
    5454   61.53     449   441.1     21.19
    5455   61.54     444   434.1     21.07
    5456   61.55     431     429     20.76
    5457   61.56     431     425     20.76
    5458   61.57     436     422     20.88
    5459   61.58     429   419.7     20.71
    5460   61.59     431   417.7     20.76
    5461   61.60     431   416.1     20.76
    5462   61.61     421   414.8     20.52
    5463   61.62     421   413.7     20.52
    5464   61.63     422   412.7     20.54
    5465   61.64     419   411.8     20.47
    5466   61.65     415   411.1     20.37
    5467   61.66     424   410.4     20.59
    5468   61.67     414   409.8     20.35
    5469   61.68     410   409.3     20.25
    5470   61.69     421   408.8     20.52
    5471   61.70     412   408.4     20.30
    5472   61.71     408     408     20.20
    5473   61.72     414   407.7     20.35
    5474   61.73     415   407.3     20.37
    5475   61.74     418     407     20.45
    5476   61.75     418   406.8     20.45
    5477   61.76     422   406.5     20.54
    5478   61.77     419   406.3     20.47
    5479   61.78     408     406     20.20
    5480   61.79     413   405.8     20.32
    5481   61.80     401   405.6     20.02
    5482   61.81     411   406.5     20.27
    5483   61.82     415   406.5     20.37
    5484   61.83     410   406.4     20.25
    5485   61.84     412   406.4     20.30
    5486   61.85     414   406.4     20.35
    5487   61.86     420   406.4     20.49
    5488   61.87     414   406.5     20.35
    5489   61.88     417   409.7     20.42
    5490   61.89     421   410.3     20.52
    5491   61.90     404     411     20.10
    5492   61.91     410   411.9     20.25
    5493   61.92     420   413.1     20.49
    5494   61.93     422   414.8     20.54
    5495   61.94     418   416.9     20.45
    5496   61.95     421   419.9     20.52
    5497   61.96     419     424     20.47
    5498   61.97     418   429.4     20.45
    5499   61.98     429   436.5     20.71
    5500   61.99     450   445.8     21.21
    5501   62.00     448   457.2     21.17
    5502   62.01     469   470.8     21.66
    5503   62.02     480   485.6     21.91
    5504   62.03     498   497.7     22.32
    5505   62.04     510   504.8     22.58
    5506   62.05     518   502.5     22.76
    5507   62.06     499   491.9     22.34
    5508   62.07     501   477.4     22.38
    5509   62.08     478   462.8     21.86
    5510   62.09     457   449.9     21.38
    5511   62.10     445   439.4     21.10
    5512   62.11     434     431     20.83
    5513   62.12     428   424.6     20.69
    5514   62.13     433   419.7     20.81
    5515   62.14     424   416.1     20.59
    5516   62.15     422   413.4     20.54
    5517   62.16     422   411.3     20.54
    5518   62.17     416   409.8     20.40
    5519   62.18     417   408.6     20.42
    5520   62.19     412   408.6     20.30
    5521   62.20     406   408.1     20.15
    5522   62.21     407   407.8     20.17
    5523   62.22     415   404.9     20.37
    5524   62.23     413     405     20.32
    5525   62.24     400     405     20.00
    5526   62.25     403   404.8     20.07
    5527   62.26     417   404.4     20.42
    5528   62.27     408   403.9     20.20
    5529   62.28     412   403.4     20.30
    5530   62.29     401     402     20.02
    5531   62.30     406   400.8     20.15
    5532   62.31     409   400.7     20.22
    5533   62.32     406   400.7     20.15
    5534   62.33     416   400.6     20.40
    5535   62.34     408   400.6     20.20
    5536   62.35     412   400.5     20.30
    5537   62.36     398   400.5     19.95
    5538   62.37     403   400.5     20.07
    5539   62.38     411   400.4     20.27
    5540   62.39     407   400.4     20.17
    5541   62.40     406   400.3     20.15
    5542   62.41     401   400.3     20.02
    5543   62.42     387   400.2     19.67
    5544   62.43     396   400.2     19.90
    5545   62.44     396   400.2     19.90
    5546   62.45     401   400.1     20.02
    5547   62.46     397   400.1     19.92
    5548   62.47     398     400     19.95
    5549   62.48     402     400     20.05
    5550   62.49     411   399.9     20.27
    5551   62.50     412   399.9     20.30
    5552   62.51     401   399.9     20.02
    5553   62.52     414   399.8     20.35
    5554   62.53     397   399.8     19.92
    5555   62.54     393   399.7     19.82
    5556   62.55     410   399.7     20.25
    5557   62.56     405   399.6     20.12
    5558   62.57     401   399.6     20.02
    5559   62.58     395   399.6     19.87
    5560   62.59     411   399.5     20.27
    5561   62.60     394   399.5     19.85
    5562   62.61     409   399.4     20.22
    5563   62.62     404   399.4     20.10
    5564   62.63     413   399.3     20.32
    5565   62.64     413   399.3     20.32
    5566   62.65     402   399.3     20.05
    5567   62.66     401   400.2     20.02
    5568   62.67     400   400.3     20.00
    5569   62.68     396   400.3     19.90
    5570   62.69     401   400.6     20.02
    5571   62.70     405   400.8     20.12
    5572   62.71     404   401.1     20.10
    5573   62.72     401   401.1     20.02
    5574   62.73     406     401     20.15
    5575   62.74     396   400.9     19.90
    5576   62.75     404   400.6     20.10
    5577   62.76     414   400.7     20.35
    5578   62.77     413   400.8     20.32
    5579   62.78     412   400.9     20.30
    5580   62.79     404     401     20.10
    5581   62.80     414   401.1     20.35
    5582   62.81     414   401.3     20.35
    5583   62.82     417   401.5     20.42
    5584   62.83     406   401.7     20.15
    5585   62.84     405     402     20.12
    5586   62.85     407   402.3     20.17
    5587   62.86     415   402.7     20.37
    5588   62.87     413   403.1     20.32
    5589   62.88     413   403.6     20.32
    5590   62.89     416   404.2     20.40
    5591   62.90     408     405     20.20
    5592   62.91     411     406     20.27
    5593   62.92     408   407.2     20.20
    5594   62.93     408   408.8     20.20
    5595   62.94     414   410.9     20.35
    5596   62.95     415   413.8     20.37
    5597   62.96     419   417.6     20.47
    5598   62.97     426   422.7     20.64
    5599   62.98     424   429.5     20.59
    5600   62.99     439   438.2     20.95
    5601   63.00     435   449.1     20.86
    5602   63.01     441   462.3     21.00
    5603   63.02     458   476.9     21.40
    5604   63.03     486   490.9     22.05
    5605   63.04     498   500.2     22.32
    5606   63.05     508   500.8     22.54
    5607   63.06     512   492.4     22.63
    5608   63.07     502   478.7     22.41
    5609   63.08     476   463.9     21.82
    5610   63.09     476   450.3     21.82
    5611   63.10     451     439     21.24
    5612   63.11     432   429.9     20.78
    5613   63.12     436   422.9     20.88
    5614   63.13     421   417.5     20.52
    5615   63.14     412   413.4     20.30
    5616   63.15     411   410.4     20.27
    5617   63.16     412   408.1     20.30
    5618   63.17     414   406.4     20.35
    5619   63.18     403   405.1     20.07
    5620   63.19     400     404     20.00
    5621   63.20     405   403.2     20.12
    5622   63.21     407   402.4     20.17
    5623   63.22     410   401.8     20.25
    5624   63.23     412   401.3     20.30
    5625   63.24     412   400.9     20.30
    5626   63.25     416   400.5     20.40
    5627   63.26     405   400.2     20.12
    5628   63.27     400   399.9     20.00
    5629   63.28     403   399.6     20.07
    5630   63.29     398   399.3     19.95
    5631   63.30     406   399.3     20.15
    5632   63.31     409   399.1     20.22
    5633   63.32     401   399.7     20.02
    5634   63.33     403   399.8     20.07
    5635   63.34     395   399.9     19.87
    5636   63.35     410   399.8     20.25
    5637   63.36     410   399.5     20.25
    5638   63.37     403   399.1     20.07
    5639   63.38     404   398.2     20.10
    5640   63.39     414     398     20.35
    5641   63.40     404   397.7     20.10
    5642   63.41     408   397.6     20.20
    5643   63.42     415   399.6     20.37
    5644   63.43     411   399.7     20.27
    5645   63.44     395   398.8     19.87
    5646   63.45     409   399.1     20.22
    5647   63.46     396   399.3     19.90
    5648   63.47     401   399.6     20.02
    5649   63.48     408     400     20.20
    5650   63.49     411   401.5     20.27
    5651   63.50     402   402.2     20.05
    5652   63.51     405   403.4     20.12
    5653   63.52     406   406.8     20.15
    5654   63.53     409     409     20.22
    5655   63.54     413   410.7     20.32
    5656   63.55     430   410.7     20.74
    5657   63.56     422   414.1     20.54
    5658   63.57     436   418.5     20.88
    5659   63.58     423   424.7     20.57
    5660   63.59     425   432.6     20.62
    5661   63.60     446   442.3     21.12
    5662   63.61     447   453.9     21.14
    5663   63.62     455   466.3     21.33
    5664   63.63     489   477.5     22.11
    5665   63.64     489   483.7     22.11
    5666   63.65     496   482.3     22.27
    5667   63.66     493   473.7     22.20
    5668   63.67     475   461.6     21.79
    5669   63.68     458   449.2     21.40
    5670   63.69     446   438.2     21.12
    5671   63.70     435   429.1     20.86
    5672   63.71     423   421.8     20.57
    5673   63.72     429   416.1     20.71
    5674   63.73     413   411.8     20.32
    5675   63.74     416   408.6     20.40
    5676   63.75     417   406.2     20.42
    5677   63.76     418   404.3     20.45
    5678   63.77     412     403     20.30
    5679   63.78     410   403.4     20.25
    5680   63.79     420   403.9     20.49
    5681   63.80     415     404     20.37
    5682   63.81     405   403.4     20.12
    5683   63.82     408     404     20.20
    5684   63.83     409   404.4     20.22
    5685   63.84     411   404.5     20.27
    5686   63.85     414   404.1     20.35
    5687   63.86     411   403.1     20.27
    5688   63.87     413     400     20.32
    5689   63.88     405   399.1     20.12
    5690   63.89     403   398.3     20.07
    5691   63.90     400   397.6     20.00
    5692   63.91     403   396.4     20.07
    5693   63.92     400   395.1     20.00
    5694   63.93     412     395     20.30
    5695   63.94     397     395     19.92
    5696   63.95     393     395     19.82
    5697   63.96     393     395     19.82
    5698   63.97     399   394.9     19.97
    5699   63.98     394   394.9     19.85
    5700   63.99     395   394.9     19.87
    5701   64.00     388   394.9     19.70
    5702   64.01     390   394.9     19.75
    5703   64.02     392   394.8     19.80
    5704   64.03     393   394.8     19.82
    5705   64.04     381   394.8     19.52
    5706   64.05     409   394.8     20.22
    5707   64.06     403   394.7     20.07
    5708   64.07     390   394.7     19.75
    5709   64.08     402   394.7     20.05
    5710   64.09     398   394.7     19.95
    5711   64.10     404   394.7     20.10
    5712   64.11     390   395.6     19.75
    5713   64.12     397   395.7     19.92
    5714   64.13     399   395.7     19.97
    5715   64.14     402   395.7     20.05
    5716   64.15     393   395.7     19.82
    5717   64.16     399   395.8     19.97
    5718   64.17     402   395.8     20.05
    5719   64.18     389   395.8     19.72
    5720   64.19     400   395.9     20.00
    5721   64.20     399   395.9     19.97
    5722   64.21     397     396     19.92
    5723   64.22     397     396     19.92
    5724   64.23     400   396.1     20.00
    5725   64.24     410   396.2     20.25
    5726   64.25     403   396.2     20.07
    5727   64.26     400   396.3     20.00
    5728   64.27     400   396.4     20.00
    5729   64.28     390   396.5     19.75
    5730   64.29     399   396.6     19.97
    5731   64.30     398   396.7     19.95
    5732   64.31     403   396.9     20.07
    5733   64.32     401     397     20.02
    5734   64.33     393   397.2     19.82
    5735   64.34     394   397.4     19.85
    5736   64.35     411   397.6     20.27
    5737   64.36     403   397.8     20.07
    5738   64.37     406   398.1     20.15
    5739   64.38     408   398.3     20.20
    5740   64.39     402   398.7     20.05
    5741   64.40     404     399     20.10
    5742   64.41     409   399.5     20.22
    5743   64.42     414   399.9     20.35
    5744   64.43     403   400.5     20.07
    5745   64.44     411   401.1     20.27
    5746   64.45     424   401.9     20.59
    5747   64.46     420   402.7     20.49
    5748   64.47     413   403.8     20.32
    5749   64.48     416     405     20.40
    5750   64.49     422   406.5     20.54
    5751   64.50     422   408.4     20.54
    5752   64.51     415   410.9     20.37
    5753   64.52     427     414     20.66
    5754   64.53     437   418.3     20.90
    5755   64.54     428     424     20.69
    5756   64.55     439   431.5     20.95
    5757   64.56     443   441.5     21.05
    5758   64.57     451   454.4     21.24
    5759   64.58     457   470.8     21.38
    5760   64.59     475     491     21.79
    5761   64.60     490   514.6     22.14
    5762   64.61     528   539.6     22.98
    5763   64.62     557   561.4     23.60
    5764   64.63     583   572.6     24.15
    5765   64.64     591   568.3     24.31
    5766   64.65     589   550.4     24.27
    5767   64.66     565   525.9     23.77
    5768   64.67     533   501.2     23.09
    5769   64.68     504   479.2     22.45
    5770   64.69     471   461.1     21.70
    5771   64.70     454   446.6     21.31
    5772   64.71     440   435.3     20.98
    5773   64.72     435   426.7     20.86
    5774   64.73     429   420.3     20.71
    5775   64.74     428   415.4     20.69
    5776   64.75     423   411.9     20.57
    5777   64.76     414   409.1     20.35
    5778   64.77     419     407     20.47
    5779   64.78     420   405.4     20.49
    5780   64.79     415   404.1     20.37
    5781   64.80     422   404.6     20.54
    5782   64.81     425   403.8     20.62
    5783   64.82     411   402.9     20.27
    5784   64.83     415   400.5     20.37
    5785   64.84     414   399.8     20.35
    5786   64.85     407   399.3     20.17
    5787   64.86     403   398.8     20.07
    5788   64.87     404   400.4     20.10
    5789   64.88     404   400.3     20.10
    5790   64.89     415   399.5     20.37
    5791   64.90     401   397.3     20.02
    5792   64.91     392     397     19.80
    5793   64.92     408   396.8     20.20
    5794   64.93     410   396.6     20.25
    5795   64.94     397   396.4     19.92
    5796   64.95     409   396.2     20.22
    5797   64.96     399   396.1     19.97
    5798   64.97     394   395.9     19.85
    5799   64.98     406   395.8     20.15
    5800   64.99     413   395.6     20.32
    5801   65.00     400   395.5     20.00
    5802   65.01     390   395.4     19.75
    5803   65.02     391   395.3     19.77
    5804   65.03     398   395.2     19.95
    5805   65.04     408   395.2     20.20
    5806   65.05     391   395.1     19.77
    5807   65.06     404     395     20.10
    5808   65.07     401   394.9     20.02
    5809   65.08     398     397     19.95
    5810   65.09     402   397.3     20.05
    5811   65.10     395   397.7     19.87
    5812   65.11     400   398.2     20.00
    5813   65.12     407   398.9     20.17
    5814   65.13     406   399.8     20.15
    5815   65.14     398   401.1     19.95
    5816   65.15     416   402.8     20.40
    5817   65.16     413     404     20.32
    5818   65.17     412   406.8     20.30
    5819   65.18     408   410.2     20.20
    5820   65.19     411   414.3     20.27
    5821   65.20     424   418.5     20.59
    5822   65.21     438   422.1     20.93
    5823   65.22     423   423.9     20.57
    5824   65.23     430   423.1     20.74
    5825   65.24     433     420     20.81
    5826   65.25     421   415.8     20.52
    5827   65.26     417     412     20.42
    5828   65.27     414   408.5     20.35
    5829   65.28     410   405.6     20.25
    5830   65.29     394   403.3     19.85
    5831   65.30     405   401.4     20.12
    5832   65.31     410   399.8     20.25
    5833   65.32     413   398.6     20.32
    5834   65.33     409   397.6     20.22
    5835   65.34     414   396.6     20.35
    5836   65.35     402   396.1     20.05
    5837   65.36     401   395.8     20.02
    5838   65.37     402   393.5     20.05
    5839   65.38     406   393.5     20.15
    5840   65.39     406   393.5     20.15
    5841   65.40     409   393.5     20.22
    5842   65.41     396   393.5     19.90
    5843   65.42     393   393.5     19.82
    5844   65.43     408   393.5     20.20
    5845   65.44     406   393.5     20.15
    5846   65.45     395   393.6     19.87
    5847   65.46     398   393.6     19.95
    5848   65.47     392   393.6     19.80
    5849   65.48     392   393.6     19.80
    5850   65.49     390   393.6     19.75
    5851   65.50     389   393.6     19.72
    5852   65.51     385   393.6     19.62
    5853   65.52     392   393.6     19.80
    5854   65.53     395   393.6     19.87
    5855   65.54     398   393.6     19.95
    5856   65.55     388   393.6     19.70
    5857   65.56     401   393.6     20.02
    5858   65.57     393   393.6     19.82
    5859   65.58     395   393.6     19.87
    5860   65.59     390   393.6     19.75
    5861   65.60     386   393.6     19.65
    5862   65.61     394   393.6     19.85
    5863   65.62     390   393.7     19.75
    5864   65.63     391   393.7     19.77
    5865   65.64     392   393.7     19.80
    5866   65.65     390   393.8     19.75
    5867   65.66     395   394.6     19.87
    5868   65.67     410   395.1     20.25
    5869   65.68     391   395.3     19.77
    5870   65.69     382   395.1     19.54
    5871   65.70     399   394.6     19.97
    5872   65.71     400   393.9     20.00
    5873   65.72     391   393.7     19.77
    5874   65.73     402   393.7     20.05
    5875   65.74     396   393.7     19.90
    5876   65.75     389   393.8     19.72
    5877   65.76     392   393.8     19.80
    5878   65.77     389   393.8     19.72
    5879   65.78     384   393.8     19.60
    5880   65.79     403   393.8     20.07
    5881   65.80     385   393.8     19.62
    5882   65.81     391   393.8     19.77
    5883   65.82     389   393.8     19.72
    5884   65.83     387   393.8     19.67
    5885   65.84     386   393.9     19.65
    5886   65.85     400   393.9     20.00
    5887   65.86     398   393.9     19.95
    5888   65.87     402   393.9     20.05
    5889   65.88     395   393.9     19.87
    5890   65.89     392   393.9     19.80
    5891   65.90     394   393.9     19.85
    5892   65.91     396   393.9     19.90
    5893   65.92     392   393.9     19.80
    5894   65.93     395     394     19.87
    5895   65.94     391     394     19.77
    5896   65.95     386     394     19.65
    5897   65.96     389     394     19.72
    5898   65.97     396     394     19.90
    5899   65.98     393     394     19.82
    5900   65.99     390     394     19.75
    5901   66.00     396     394     19.90
    5902   66.01     397   395.2     19.92
    5903   66.02     406   395.3     20.15
    5904   66.03     416   395.4     20.40
    5905   66.04     399   395.6     19.97
    5906   66.05     388   395.8     19.70
    5907   66.06     389   396.1     19.72
    5908   66.07     394   396.4     19.85
    5909   66.08     394   396.9     19.85
    5910   66.09     394   397.4     19.85
    5911   66.10     396   398.1     19.90
    5912   66.11     404   399.1     20.10
    5913   66.12     406   400.3     20.15
    5914   66.13     399     402     19.97
    5915   66.14     404   404.1     20.10
    5916   66.15     403   406.7     20.07
    5917   66.16     405   409.8     20.12
    5918   66.17     406   413.3     20.15
    5919   66.18     417   416.8     20.42
    5920   66.19     425   419.4     20.62
    5921   66.20     424   420.2     20.59
    5922   66.21     420   418.8     20.49
    5923   66.22     425   415.8     20.62
    5924   66.23     418   412.2     20.45
    5925   66.24     409   408.8     20.22
    5926   66.25     409   405.9     20.22
    5927   66.26     395   403.5     19.87
    5928   66.27     405   401.6     20.12
    5929   66.28     407   400.1     20.17
    5930   66.29     398     399     19.95
    5931   66.30     398   398.2     19.95
    5932   66.31     395   397.5     19.87
    5933   66.32     400   397.1     20.00
    5934   66.33     399   396.7     19.97
    5935   66.34     391   396.5     19.77
    5936   66.35     382   396.2     19.54
    5937   66.36     392   396.1     19.80
    5938   66.37     385   395.9     19.62
    5939   66.38     389   395.8     19.72
    5940   66.39     398   395.7     19.95
    5941   66.40     399   394.7     19.97
    5942   66.41     400   394.7     20.00
    5943   66.42     395   394.7     19.87
    5944   66.43     397   394.8     19.92
    5945   66.44     380   394.8     19.49
    5946   66.45     408   394.8     20.20
    5947   66.46     396   394.8     19.90
    5948   66.47     395   394.8     19.87
    5949   66.48     396   394.9     19.90
    5950   66.49     399   394.9     19.97
    5951   66.50     397   394.9     19.92
    5952   66.51     404   394.9     20.10
    5953   66.52     399   394.9     19.97
    5954   66.53     404     395     20.10
    5955   66.54     409     395     20.22
    5956   66.55     403     395     20.07
    5957   66.56     407     395     20.17
    5958   66.57     404     395     20.10
    5959   66.58     406   397.1     20.15
    5960   66.59     395   397.3     19.87
    5961   66.60     395   397.5     19.87
    5962   66.61     387   397.8     19.67
    5963   66.62     392   398.2     19.80
    5964   66.63     395   398.6     19.87
    5965   66.64     393   399.1     19.82
    5966   66.65     400   399.8     20.00
    5967   66.66     401   400.6     20.02
    5968   66.67     415   401.6     20.37
    5969   66.68     398     403     19.95
    5970   66.69     398   404.8     19.95
    5971   66.70     406   407.3     20.15
    5972   66.71     401   410.4     20.02
    5973   66.72     404   414.5     20.10
    5974   66.73     415   419.5     20.37
    5975   66.74     413   425.6     20.32
    5976   66.75     424   432.6     20.59
    5977   66.76     437   439.8     20.90
    5978   66.77     438   445.7     20.93
    5979   66.78     441   448.2     21.00
    5980   66.79     451   446.3     21.24
    5981   66.80     449   440.8     21.19
    5982   66.81     447   433.7     21.14
    5983   66.82     432   426.7     20.78
    5984   66.83     421   420.5     20.52
    5985   66.84     417   415.3     20.42
    5986   66.85     407   411.2     20.17
    5987   66.86     401     408     20.02
    5988   66.87     408   405.6     20.20
    5989   66.88     396   403.7     19.90
    5990   66.89     412   402.4     20.30
    5991   66.90     418   401.3     20.45
    5992   66.91     394   400.6     19.85
    5993   66.92     392   401.5     19.80
    5994   66.93     404   401.4     20.10
    5995   66.94     391   401.5     19.77
    5996   66.95     398   401.8     19.95
    5997   66.96     395     402     19.87
    5998   66.97     403   402.1     20.07
    5999   66.98     395   402.4     19.87
    6000   66.99     412   400.4     20.30
    6001   67.00     404   400.2     20.10
    6002   67.01     416   399.7     20.40
    6003   67.02     408   398.9     20.20
    6004   67.03     409   397.8     20.22
    6005   67.04     400   396.3     20.00
    6006   67.05     394   396.3     19.85
    6007   67.06     403   396.3     20.07
    6008   67.07     389   396.3     19.72
    6009   67.08     398   396.3     19.95
    6010   67.09     395   396.3     19.87
    6011   67.10     397   396.3     19.92
    6012   67.11     407   396.3     20.17
    6013   67.12     403   396.4     20.07
    6014   67.13     401   396.4     20.02
    6015   67.14     411   396.4     20.27
    6016   67.15     402   396.4     20.05
    6017   67.16     396   396.5     19.90
    6018   67.17     392   396.7     19.80
    6019   67.18     395   396.9     19.87
    6020   67.19     391     397     19.77
    6021   67.20     406   397.2     20.15
    6022   67.21     408   397.3     20.20
    6023   67.22     392   397.3     19.80
    6024   67.23     403   397.2     20.07
    6025   67.24     404   397.1     20.10
    6026   67.25     393     397     19.82
    6027   67.26     397   396.7     19.92
    6028   67.27     404   396.8     20.10
    6029   67.28     402   397.8     20.05
    6030   67.29     400   397.9     20.00
    6031   67.30     394   397.9     19.85
    6032   67.31     396     398     19.90
    6033   67.32     401   398.1     20.02
    6034   67.33     395   398.2     19.87
    6035   67.34     397   398.3     19.92
    6036   67.35     401   398.4     20.02
    6037   67.36     399   398.5     19.97
    6038   67.37     402   398.6     20.05
    6039   67.38     394   398.7     19.85
    6040   67.39     392   398.8     19.80
    6041   67.40     391   398.9     19.77
    6042   67.41     401   399.1     20.02
    6043   67.42     392   400.2     19.80
    6044   67.43     398   400.4     19.95
    6045   67.44     405   400.7     20.12
    6046   67.45     392   400.9     19.80
    6047   67.46     390   401.2     19.75
    6048   67.47     407   401.5     20.17
    6049   67.48     407   401.9     20.17
    6050   67.49     402   402.3     20.05
    6051   67.50     408   402.7     20.20
    6052   67.51     400   403.2     20.00
    6053   67.52     402   404.7     20.05
    6054   67.53     410   405.4     20.25
    6055   67.54     402   406.2     20.05
    6056   67.55     403   407.1     20.07
    6057   67.56     410   408.1     20.25
    6058   67.57     422   409.3     20.54
    6059   67.58     418   410.7     20.45
    6060   67.59     414   412.4     20.35
    6061   67.60     423   414.4     20.57
    6062   67.61     416     417     20.40
    6063   67.62     420   420.2     20.49
    6064   67.63     428   424.4     20.69
    6065   67.64     420   429.8     20.49
    6066   67.65     438     437     20.93
    6067   67.66     441   446.6     21.00
    6068   67.67     458   459.1     21.40
    6069   67.68     470   475.2     21.68
    6070   67.69     469   495.5     21.66
    6071   67.70     498   520.5     22.32
    6072   67.71     533   549.9     23.09
    6073   67.72     557     582     23.60
    6074   67.73     592     612     24.33
    6075   67.74     633   631.6     25.16
    6076   67.75     655   633.2     25.59
    6077   67.76     648   615.9     25.46
    6078   67.77     638   587.3     25.26
    6079   67.78     593   555.3     24.35
    6080   67.79     553   525.5     23.52
    6081   67.80     510   499.7     22.58
    6082   67.81     488   478.5     22.09
    6083   67.82     469   461.3     21.66
    6084   67.83     453   448.4     21.28
    6085   67.84     438   438.5     20.93
    6086   67.85     438   431.1     20.93
    6087   67.86     428   425.5     20.69
    6088   67.87     422   421.3     20.54
    6089   67.88     425     418     20.62
    6090   67.89     422   415.4     20.54
    6091   67.90     428   413.4     20.69
    6092   67.91     413   411.7     20.32
    6093   67.92     423   410.4     20.57
    6094   67.93     419   409.2     20.47
    6095   67.94     413   408.2     20.32
    6096   67.95     412   407.4     20.30
    6097   67.96     407   406.6     20.17
    6098   67.97     399     406     19.97
    6099   67.98     398   404.5     19.95
    6100   67.99     398     404     19.95
    6101   68.00     398   403.7     19.95
    6102   68.01     396   403.3     19.90
    6103   68.02     398     403     19.95
    6104   68.03     399   402.8     19.97
    6105   68.04     395   402.5     19.87
    6106   68.05     410   402.3     20.25
    6107   68.06     396   402.2     19.90
    6108   68.07     404     402     20.10
    6109   68.08     396   400.9     19.90
    6110   68.09     397   400.8     19.92
    6111   68.10     412   400.7     20.30
    6112   68.11     394   400.6     19.85
    6113   68.12     395   400.6     19.87
    6114   68.13     398   400.5     19.95
    6115   68.14     393   402.6     19.82
    6116   68.15     400   402.8     20.00
    6117   68.16     401   403.1     20.02
    6118   68.17     392   403.4     19.80
    6119   68.18     398   403.8     19.95
    6120   68.19     393   404.3     19.82
    6121   68.20     398     405     19.95
    6122   68.21     409   405.9     20.22
    6123   68.22     411   406.1     20.27
    6124   68.23     406   407.7     20.15
    6125   68.24     406   409.8     20.15
    6126   68.25     411   412.6     20.27
    6127   68.26     408     416     20.20
    6128   68.27     414   420.4     20.35
    6129   68.28     419   425.6     20.47
    6130   68.29     428   431.6     20.69
    6131   68.30     420   437.8     20.49
    6132   68.31     434   442.9     20.83
    6133   68.32     446   445.4     21.12
    6134   68.33     439   444.1     20.95
    6135   68.34     429   439.6     20.71
    6136   68.35     428   433.6     20.69
    6137   68.36     420   427.5     20.49
    6138   68.37     423   422.1     20.57
    6139   68.38     415   417.5     20.37
    6140   68.39     408   413.8     20.20
    6141   68.40     412   410.9     20.30
    6142   68.41     410   408.7     20.25
    6143   68.42     401     407     20.02
    6144   68.43     401   405.7     20.02
    6145   68.44     399   405.6     19.97
    6146   68.45     390   405.1     19.75
    6147   68.46     397   404.8     19.92
    6148   68.47     400   404.7     20.00
    6149   68.48     402   404.8     20.05
    6150   68.49     399   404.9     19.97
    6151   68.50     399     405     19.97
    6152   68.51     404     405     20.10
    6153   68.52     405     403     20.12
    6154   68.53     399   402.7     19.97
    6155   68.54     398   402.4     19.95
    6156   68.55     401     402     20.02
    6157   68.56     399   401.6     19.97
    6158   68.57     395   401.3     19.87
    6159   68.58     395   401.1     19.87
    6160   68.59     395   401.1     19.87
    6161   68.60     394   400.4     19.85
    6162   68.61     401   401.3     20.02
    6163   68.62     394   401.7     19.85
    6164   68.63     393   401.9     19.82
    6165   68.64     398   401.9     19.95
    6166   68.65     396   401.7     19.90
    6167   68.66     392   401.4     19.80
    6168   68.67     391   400.5     19.77
    6169   68.68     397   400.5     19.92
    6170   68.69     389   400.3     19.72
    6171   68.70     400   400.3     20.00
    6172   68.71     400   400.3     20.00
    6173   68.72     395   400.4     19.87
    6174   68.73     399   400.4     19.97
    6175   68.74     393   400.4     19.82
    6176   68.75     397   400.4     19.92
    6177   68.76     399   400.4     19.97
    6178   68.77     394   400.4     19.85
    6179   68.78     399   400.5     19.97
    6180   68.79     400   400.5     20.00
    6181   68.80     388   400.5     19.70
    6182   68.81     390   400.5     19.75
    6183   68.82     392   400.5     19.80
    6184   68.83     385   400.5     19.62
    6185   68.84     391   400.6     19.77
    6186   68.85     382   400.6     19.54
    6187   68.86     384   400.6     19.60
    6188   68.87     380   400.6     19.49
    6189   68.88     399   400.6     19.97
    6190   68.89     390   400.6     19.75
    6191   68.90     390   400.6     19.75
    6192   68.91     392   400.7     19.80
    6193   68.92     397   400.7     19.92
    6194   68.93     389   400.7     19.72
    6195   68.94     394   400.7     19.85
    6196   68.95     399   400.7     19.97
    6197   68.96     390   400.7     19.75
    6198   68.97     395   401.8     19.87
    6199   68.98     396   401.9     19.90
    6200   68.99     403   401.9     20.07
    6201   69.00     399     402     19.97
    6202   69.01     388   402.1     19.70
    6203   69.02     392   402.3     19.80
    6204   69.03     401   402.4     20.02
    6205   69.04     397   402.5     19.92
    6206   69.05     396   402.7     19.90
    6207   69.06     391   402.9     19.77
    6208   69.07     394   403.4     19.85
    6209   69.08     394   404.6     19.85
    6210   69.09     411   406.7     20.27
    6211   69.10     414   407.2     20.35
    6212   69.11     397   405.9     19.92
    6213   69.12     403   405.9     20.07
    6214   69.13     395   405.9     19.87
    6215   69.14     400   405.9     20.00
    6216   69.15     401   406.7     20.02
    6217   69.16     400   407.7     20.00
    6218   69.17     398   409.1     19.95
    6219   69.18     403     411     20.07
    6220   69.19     406   413.4     20.15
    6221   69.20     406   416.5     20.15
    6222   69.21     409   420.5     20.22
    6223   69.22     415   425.6     20.37
    6224   69.23     421   431.8     20.52
    6225   69.24     427   439.1     20.66
    6226   69.25     442     447     21.02
    6227   69.26     442   454.4     21.02
    6228   69.27     462   459.3     21.49
    6229   69.28     466     460     21.59
    6230   69.29     464   455.9     21.54
    6231   69.30     445   448.9     21.10
    6232   69.31     443   440.9     21.05
    6233   69.32     424   433.5     20.59
    6234   69.33     424     427     20.59
    6235   69.34     417   421.7     20.42
    6236   69.35     407   417.4     20.17
    6237   69.36     397   414.1     19.92
    6238   69.37     402   411.5     20.05
    6239   69.38     396   409.6     19.90
    6240   69.39     404   408.1     20.10
    6241   69.40     408     407     20.20
    6242   69.41     405   406.1     20.12
    6243   69.42     396   405.5     19.90
    6244   69.43     400   404.9     20.00
    6245   69.44     397   404.5     19.92
    6246   69.45     391   404.1     19.77
    6247   69.46     391   403.8     19.77
    6248   69.47     397   403.5     19.92
    6249   69.48     392   403.3     19.80
    6250   69.49     391   403.1     19.77
    6251   69.50     391   402.9     19.77
    6252   69.51     403   402.8     20.07
    6253   69.52     390   402.7     19.75
    6254   69.53     394   402.5     19.85
    6255   69.54     395   402.4     19.87
    6256   69.55     403   402.3     20.07
    6257   69.56     397   402.2     19.92
    6258   69.57     405   402.1     20.12
    6259   69.58     393   402.1     19.82
    6260   69.59     385     401     19.62
    6261   69.60     390     401     19.75
    6262   69.61     390     401     19.75
    6263   69.62     394     401     19.85
    6264   69.63     390     401     19.75
    6265   69.64     395     401     19.87
    6266   69.65     401     401     20.02
    6267   69.66     392     401     19.80
    6268   69.67     400     402     20.00
    6269   69.68     400   402.1     20.00
    6270   69.69     400   402.3     20.00
    6271   69.70     395   402.4     19.87
    6272   69.71     394   402.6     19.85
    6273   69.72     408   402.9     20.20
    6274   69.73     410   404.4     20.25
    6275   69.74     393   405.1     19.82
    6276   69.75     400   406.1     20.00
    6277   69.76     401   407.3     20.02
    6278   69.77     398   408.9     19.95
    6279   69.78     400   410.9     20.00
    6280   69.79     400   413.5     20.00
    6281   69.80     398   416.6     19.95
    6282   69.81     402   420.3     20.05
    6283   69.82     417   424.3     20.42
    6284   69.83     408     428     20.20
    6285   69.84     426   430.5     20.64
    6286   69.85     430   431.4     20.74
    6287   69.86     421   429.8     20.52
    6288   69.87     411   426.5     20.27
    6289   69.88     407   422.3     20.17
    6290   69.89     412   418.1     20.30
    6291   69.90     402   414.4     20.05
    6292   69.91     414   411.3     20.35
    6293   69.92     392   409.1     19.80
    6294   69.93     403   407.4     20.07
    6295   69.94     396   406.1     19.90
    6296   69.95     391     405     19.77
    6297   69.96     397   404.6     19.92
    6298   69.97     400   403.1     20.00
    6299   69.98     392   402.9     19.80
    6300   69.99     403   404.3     20.07
    6301   70.00     391   404.6     19.77
    6302   70.01     393     405     19.82
    6303   70.02     399   405.3     19.97
    6304   70.03     397   404.6     19.92
    6305   70.04     392   404.6     19.80
    6306   70.05     394   404.3     19.85
    6307   70.06     393   403.8     19.82
    6308   70.07     392   403.2     19.80
    6309   70.08     398   402.7     19.95
    6310   70.09     393   402.2     19.82
    6311   70.10     396   400.9     19.90
    6312   70.11     392   400.7     19.80
    6313   70.12     389   400.3     19.72
    6314   70.13     389   400.3     19.72
    6315   70.14     402   400.3     20.05
    6316   70.15     408   400.3     20.20
    6317   70.16     398   400.2     19.95
    6318   70.17     396   400.2     19.90
    6319   70.18     398   400.2     19.95
    6320   70.19     391   400.2     19.77
    6321   70.20     406   400.1     20.15
    6322   70.21     398   400.1     19.95
    6323   70.22     389   400.1     19.72
    6324   70.23     394   400.1     19.85
    6325   70.24     391     400     19.77
    6326   70.25     390     400     19.75
    6327   70.26     392     400     19.80
    6328   70.27     386     400     19.65
    6329   70.28     385   399.9     19.62
    6330   70.29     397   399.9     19.92
    6331   70.30     399   399.9     19.97
    6332   70.31     402   399.8     20.05
    6333   70.32     389   399.8     19.72
    6334   70.33     392   399.8     19.80
    6335   70.34     402   399.8     20.05
    6336   70.35     404   399.7     20.10
    6337   70.36     403   399.7     20.07
    6338   70.37     386   400.7     19.65
    6339   70.38     393   400.7     19.82
    6340   70.39     395   400.7     19.87
    6341   70.40     397   400.7     19.92
    6342   70.41     395   400.8     19.87
    6343   70.42     404   400.8     20.10
    6344   70.43     399   400.8     19.97
    6345   70.44     395   400.9     19.87
    6346   70.45     399   400.9     19.97
    6347   70.46     406     401     20.15
    6348   70.47     406     401     20.15
    6349   70.48     405   401.1     20.12
    6350   70.49     397   401.2     19.92
    6351   70.50     400   403.4     20.00
    6352   70.51     411   403.6     20.27
    6353   70.52     406   403.9     20.15
    6354   70.53     403   404.2     20.07
    6355   70.54     407   404.6     20.17
    6356   70.55     406     405     20.15
    6357   70.56     412   405.5     20.30
    6358   70.57     407     406     20.17
    6359   70.58     399   406.6     19.97
    6360   70.59     401   407.3     20.02
    6361   70.60     406   408.1     20.15
    6362   70.61     403   409.1     20.07
    6363   70.62     403   410.2     20.07
    6364   70.63     407   411.6     20.17
    6365   70.64     411   413.2     20.27
    6366   70.65     429   415.2     20.71
    6367   70.66     427   417.8     20.66
    6368   70.67     421   421.1     20.52
    6369   70.68     428   425.5     20.69
    6370   70.69     428   431.2     20.69
    6371   70.70     436   438.6     20.88
    6372   70.71     431   448.4     20.76
    6373   70.72     454     461     21.31
    6374   70.73     455   476.9     21.33
    6375   70.74     480   496.6     21.91
    6376   70.75     486   520.2     22.05
    6377   70.76     511   546.9     22.61
    6378   70.77     549     574     23.43
    6379   70.78     585   596.3     24.19
    6380   70.79     605   606.5     24.60
    6381   70.80     644   600.5     25.38
    6382   70.81     613   580.7     24.76
    6383   70.82     589     554     24.27
    6384   70.83     566   526.7     23.79
    6385   70.84     518     502     22.76
    6386   70.85     490   481.1     22.14
    6387   70.86     478   464.1     21.86
    6388   70.87     462   450.6     21.49
    6389   70.88     435     440     20.86
    6390   70.89     423   431.9     20.57
    6391   70.90     423   425.7     20.57
    6392   70.91     430   420.9     20.74
    6393   70.92     418   417.4     20.45
    6394   70.93     420   414.6     20.49
    6395   70.94     411   412.4     20.27
    6396   70.95     414   410.7     20.35
    6397   70.96     399   409.3     19.97
    6398   70.97     403     408     20.07
    6399   70.98     399   406.9     19.97
    6400   70.99     409   405.9     20.22
    6401   71.00     399     405     19.97
    6402   71.01     408   404.2     20.20
    6403   71.02     400   403.5     20.00
    6404   71.03     399   402.8     19.97
    6405   71.04     396   402.2     19.90
    6406   71.05     405   401.8     20.12
    6407   71.06     398   401.3     19.95
    6408   71.07     410   400.9     20.25
    6409   71.08     403   400.6     20.07
    6410   71.09     395   398.3     19.87
    6411   71.10     398   398.1     19.95
    6412   71.11     392   397.9     19.80
    6413   71.12     394   397.8     19.85
    6414   71.13     389   397.8     19.72
    6415   71.14     399   397.9     19.97
    6416   71.15     397   397.9     19.92
    6417   71.16     400   397.8     20.00
    6418   71.17     410   397.5     20.25
    6419   71.18     384   397.2     19.60
    6420   71.19     400   397.9     20.00
    6421   71.20     403   397.9     20.07
    6422   71.21     394   397.9     19.85
    6423   71.22     392   397.1     19.80
    6424   71.23     405   397.2     20.12
    6425   71.24     402   397.5     20.05
    6426   71.25     402   400.4     20.05
    6427   71.26     403   401.5     20.07
    6428   71.27     398   402.9     19.95
    6429   71.28     402   404.8     20.05
    6430   71.29     402   407.1     20.05
    6431   71.30     409   410.1     20.22
    6432   71.31     415   413.8     20.37
    6433   71.32     412     418     20.30
    6434   71.33     403   422.5     20.07
    6435   71.34     424   426.7     20.59
    6436   71.35     439   429.4     20.95
    6437   71.36     428   429.6     20.69
    6438   71.37     430   427.2     20.74
    6439   71.38     424     423     20.59
    6440   71.39     411   418.3     20.27
    6441   71.40     408   413.8     20.20
    6442   71.41     409   409.9     20.22
    6443   71.42     410   406.7     20.25
    6444   71.43     407   404.1     20.17
    6445   71.44     417     402     20.42
    6446   71.45     400   400.4     20.00
    6447   71.46     407   399.1     20.17
    6448   71.47     391   398.1     19.77
    6449   71.48     392   395.5     19.80
    6450   71.49     386   395.2     19.65
    6451   71.50     386   394.9     19.65
    6452   71.51     391   394.7     19.77
    6453   71.52     394   394.5     19.85
    6454   71.53     394   393.3     19.85
    6455   71.54     385   393.3     19.62
    6456   71.55     391   393.2     19.77
    6457   71.56     394   393.1     19.85
    6458   71.57     389     393     19.72
    6459   71.58     399   392.9     19.97
    6460   71.59     376   392.9     19.39
    6461   71.60     379   392.8     19.47
    6462   71.61     392   392.7     19.80
    6463   71.62     395   392.6     19.87
    6464   71.63     395   392.6     19.87
    6465   71.64     388   392.5     19.70
    6466   71.65     389   392.4     19.72
    6467   71.66     384   392.3     19.60
    6468   71.67     382   392.2     19.54
    6469   71.68     382   392.2     19.54
    6470   71.69     380   392.1     19.49
    6471   71.70     379     392     19.47
    6472   71.71     375   391.9     19.36
    6473   71.72     390   391.8     19.75
    6474   71.73     390   391.8     19.75
    6475   71.74     383   391.7     19.57
    6476   71.75     390   391.6     19.75
    6477   71.76     386   391.5     19.65
    6478   71.77     390   391.4     19.75
    6479   71.78     387   391.3     19.67
    6480   71.79     394   391.3     19.85
    6481   71.80     391   391.2     19.77
    6482   71.81     389   391.1     19.72
    6483   71.82     391     391     19.77
    6484   71.83     393   390.9     19.82
    6485   71.84     385   390.8     19.62
    6486   71.85     391   390.8     19.77
    6487   71.86     387   390.7     19.67
    6488   71.87     389   390.6     19.72
    6489   71.88     393   390.5     19.82
    6490   71.89     392   391.5     19.80
    6491   71.90     390   391.5     19.75
    6492   71.91     401   391.6     20.02
    6493   71.92     386   391.6     19.65
    6494   71.93     400   391.6     20.00
    6495   71.94     392   391.5     19.80
    6496   71.95     388   391.4     19.70
    6497   71.96     388   391.3     19.70
    6498   71.97     386   391.3     19.65
    6499   71.98     380   391.3     19.49
    6500   71.99     389   391.3     19.72
    6501   72.00     383   391.3     19.57
    6502   72.01     385   391.4     19.62
    6503   72.02     394   391.4     19.85
    6504   72.03     388   391.5     19.70
    6505   72.04     384   391.6     19.60
    6506   72.05     395   391.7     19.87
    6507   72.06     397   391.9     19.92
    6508   72.07     393     392     19.82
    6509   72.08     391   392.2     19.77
    6510   72.09     396   392.5     19.90
    6511   72.10     405   392.8     20.12
    6512   72.11     391   393.1     19.77
    6513   72.12     405   393.6     20.12
    6514   72.13     402   394.1     20.05
    6515   72.14     401   394.8     20.02
    6516   72.15     411   395.6     20.27
    6517   72.16     396   396.7     19.90
    6518   72.17     401   398.1     20.02
    6519   72.18     401   399.9     20.02
    6520   72.19     402   402.3     20.05
    6521   72.20     394   405.5     19.85
    6522   72.21     416   409.7     20.40
    6523   72.22     417   415.1     20.42
    6524   72.23     419   421.9     20.47
    6525   72.24     433   430.3     20.81
    6526   72.25     449   440.4     21.19
    6527   72.26     444   451.9     21.07
    6528   72.27     473   463.7     21.75
    6529   72.28     481   473.7     21.93
    6530   72.29     485   478.9     22.02
    6531   72.30     488   477.2     22.09
    6532   72.31     487   469.2     22.07
    6533   72.32     487   458.1     22.07
    6534   72.33     477   446.2     21.84
    6535   72.34     458   435.3     21.40
    6536   72.35     434   425.9     20.83
    6537   72.36     426   418.1     20.64
    6538   72.37     415   411.7     20.37
    6539   72.38     411   406.6     20.27
    6540   72.39     398   402.6     19.95
    6541   72.40     408   399.1     20.20
    6542   72.41     404   396.8     20.10
    6543   72.42     404   395.1     20.10
    6544   72.43     401   393.6     20.02
    6545   72.44     394   392.5     19.85
    6546   72.45     387   391.6     19.67
    6547   72.46     392   390.8     19.80
    6548   72.47     385   390.2     19.62
    6549   72.48     390   389.6     19.75
    6550   72.49     393   389.1     19.82
    6551   72.50     389   388.7     19.72
    6552   72.51     387   388.3     19.67
    6553   72.52     395   387.9     19.87
    6554   72.53     387   387.6     19.67
    6555   72.54     393   387.3     19.82
    6556   72.55     387     387     19.67
    6557   72.56     386   386.7     19.65
    6558   72.57     400   386.5     20.00
    6559   72.58     394   386.3     19.85
    6560   72.59     395   386.1     19.87
    6561   72.60     405   385.9     20.12
    6562   72.61     393   385.7     19.82
    6563   72.62     386   385.5     19.65
    6564   72.63     389   385.3     19.72
    6565   72.64     375   385.2     19.36
    6566   72.65     389     385     19.72
    6567   72.66     389   384.8     19.72
    6568   72.67     387   384.7     19.67
    6569   72.68     395   384.6     19.87
    6570   72.69     398   384.4     19.95
    6571   72.70     392   385.5     19.80
    6572   72.71     391   385.8     19.77
    6573   72.72     390   386.1     19.75
    6574   72.73     392   386.5     19.80
    6575   72.74     382   387.1     19.54
    6576   72.75     392   389.1     19.80
    6577   72.76     404   390.5     20.10
    6578   72.77     401   392.2     20.02
    6579   72.78     394   394.4     19.85
    6580   72.79     404   397.3     20.10
    6581   72.80     397   400.8     19.92
    6582   72.81     400   405.1     20.00
    6583   72.82     412   409.9     20.30
    6584   72.83     410   414.8     20.25
    6585   72.84     425   418.9     20.62
    6586   72.85     430   420.9     20.74
    6587   72.86     426   420.1     20.64
    6588   72.87     420   416.7     20.49
    6589   72.88     429   411.8     20.71
    6590   72.89     416   406.7     20.40
    6591   72.90     412     402     20.30
    6592   72.91     418     398     20.45
    6593   72.92     403   394.6     20.07
    6594   72.93     399     392     19.97
    6595   72.94     388   389.8     19.70
    6596   72.95     390   388.6     19.75
    6597   72.96     390   387.4     19.75
    6598   72.97     388   385.6     19.70
    6599   72.98     387   385.2     19.67
    6600   72.99     394   384.9     19.85
    6601   73.00     391   384.7     19.77
    6602   73.01     400   384.6     20.00
    6603   73.02     400   382.7     20.00
    6604   73.03     394   382.9     19.85
    6605   73.04     394   382.9     19.85
    6606   73.05     386   382.7     19.65
    6607   73.06     400   382.4     20.00
    6608   73.07     397     382     19.92
    6609   73.08     385   381.7     19.62
    6610   73.09     389   381.4     19.72
    6611   73.10     388   381.1     19.70
    6612   73.11     393   380.9     19.82
    6613   73.12     381   380.7     19.52
    6614   73.13     384   380.5     19.60
    6615   73.14     385     380     19.62
    6616   73.15     381   379.9     19.52
    6617   73.16     396   379.9     19.90
    6618   73.17     391   379.8     19.77
    6619   73.18     385   380.5     19.62
    6620   73.19     386   380.7     19.65
    6621   73.20     383   380.6     19.57
    6622   73.21     390   380.3     19.75
    6623   73.22     384   379.5     19.60
    6624   73.23     391   379.5     19.77
    6625   73.24     384   379.4     19.60
    6626   73.25     388   379.3     19.70
    6627   73.26     390   379.3     19.75
    6628   73.27     380   379.2     19.49
    6629   73.28     392   379.2     19.80
    6630   73.29     394   379.1     19.85
    6631   73.30     391   379.1     19.77
    6632   73.31     385     379     19.62
    6633   73.32     388     379     19.70
    6634   73.33     397   378.9     19.92
    6635   73.34     388   378.9     19.70
    6636   73.35     399   378.8     19.97
    6637   73.36     392   378.8     19.80
    6638   73.37     397   378.8     19.92
    6639   73.38     381   378.7     19.52
    6640   73.39     384   378.7     19.60
    6641   73.40     376   378.6     19.39
    6642   73.41     393   378.6     19.82
    6643   73.42     388   378.5     19.70
    6644   73.43     386   378.5     19.65
    6645   73.44     394   378.5     19.85
    6646   73.45     394   378.4     19.85
    6647   73.46     385   378.4     19.62
    6648   73.47     387   378.4     19.67
    6649   73.48     382   378.3     19.54
    6650   73.49     386   378.3     19.65
    6651   73.50     389   378.3     19.72
    6652   73.51     380   378.2     19.49
    6653   73.52     370   379.3     19.24
    6654   73.53     390   379.3     19.75
    6655   73.54     380   379.4     19.49
    6656   73.55     394   379.5     19.85
    6657   73.56     394   379.6     19.85
    6658   73.57     382   379.7     19.54
    6659   73.58     387   379.8     19.67
    6660   73.59     396     380     19.90
    6661   73.60     386   380.2     19.65
    6662   73.61     397   380.4     19.92
    6663   73.62     386   380.7     19.65
    6664   73.63     387     381     19.67
    6665   73.64     394   381.4     19.85
    6666   73.65     404     382     20.10
    6667   73.66     393   382.7     19.82
    6668   73.67     400   383.6     20.00
    6669   73.68     396   384.7     19.90
    6670   73.69     387   386.3     19.67
    6671   73.70     385   388.2     19.62
    6672   73.71     394   390.8     19.85
    6673   73.72     390   393.9     19.75
    6674   73.73     399   397.8     19.97
    6675   73.74     393   402.4     19.82
    6676   73.75     412   407.5     20.30
    6677   73.76     420   412.7     20.49
    6678   73.77     432   416.9     20.78
    6679   73.78     425   418.9     20.62
    6680   73.79     422   417.8     20.54
    6681   73.80     426   414.2     20.64
    6682   73.81     410   409.2     20.25
    6683   73.82     405     404     20.12
    6684   73.83     411   399.2     20.27
    6685   73.84     398   395.1     19.95
    6686   73.85     396   391.8     19.90
    6687   73.86     399   389.1     19.97
    6688   73.87     387     387     19.67
    6689   73.88     398   385.3     19.95
    6690   73.89     401   384.1     20.02
    6691   73.90     397   383.1     19.92
    6692   73.91     391   382.5     19.77
    6693   73.92     395   382.1     19.87
    6694   73.93     395     382     19.87
    6695   73.94     400     382     20.00
    6696   73.95     391     382     19.77
    6697   73.96     387   381.7     19.67
    6698   73.97     382   381.2     19.54
    6699   73.98     384   380.7     19.60
    6700   73.99     381   380.3     19.52
    6701   74.00     380   380.1     19.49
    6702   74.01     394     380     19.85
    6703   74.02     383     380     19.57
    6704   74.03     385   379.9     19.62
    6705   74.04     377   379.9     19.42
    6706   74.05     378   379.9     19.44
    6707   74.06     378   378.9     19.44
    6708   74.07     384     379     19.60
    6709   74.08     389   379.1     19.72
    6710   74.09     385   379.1     19.62
    6711   74.10     391   379.2     19.77
    6712   74.11     385   379.3     19.62
    6713   74.12     377   379.4     19.42
    6714   74.13     386   379.4     19.65
    6715   74.14     389   379.5     19.72
    6716   74.15     398   379.6     19.95
    6717   74.16     385   379.7     19.62
    6718   74.17     386   379.8     19.65
    6719   74.18     386   379.9     19.65
    6720   74.19     387     381     19.67
    6721   74.20     391   381.3     19.77
    6722   74.21     385   381.6     19.62
    6723   74.22     395     382     19.87
    6724   74.23     377   382.4     19.42
    6725   74.24     383     383     19.57
    6726   74.25     388   383.7     19.70
    6727   74.26     381   384.5     19.52
    6728   74.27     389   385.6     19.72
    6729   74.28     383   386.9     19.57
    6730   74.29     382   388.4     19.54
    6731   74.30     387   390.2     19.67
    6732   74.31     386   392.1     19.65
    6733   74.32     399   393.8     19.97
    6734   74.33     395   395.1     19.87
    6735   74.34     400   395.4     20.00
    6736   74.35     397   394.7     19.92
    6737   74.36     398   393.4     19.95
    6738   74.37     396   391.8     19.90
    6739   74.38     393   390.2     19.82
    6740   74.39     392   388.8     19.80
    6741   74.40     387   387.7     19.67
    6742   74.41     388   386.8     19.70
    6743   74.42     381   386.2     19.52
    6744   74.43     397   385.9     19.92
    6745   74.44     379   385.6     19.47
    6746   74.45     379   386.1     19.47
    6747   74.46     378   386.2     19.44
    6748   74.47     388   386.4     19.70
    6749   74.48     386   386.7     19.65
    6750   74.49     392   386.1     19.80
    6751   74.50     383   386.7     19.57
    6752   74.51     393   387.1     19.82
    6753   74.52     383   387.5     19.57
    6754   74.53     389   387.6     19.72
    6755   74.54     379   387.5     19.47
    6756   74.55     380   387.4     19.49
    6757   74.56     383   387.2     19.57
    6758   74.57     375     387     19.36
    6759   74.58     371   386.9     19.26
    6760   74.59     380   386.9     19.49
    6761   74.60     382   386.4     19.54
    6762   74.61     380   386.7     19.49
    6763   74.62     377   386.9     19.42
    6764   74.63     382     387     19.54
    6765   74.64     379   387.3     19.47
    6766   74.65     380   387.5     19.49
    6767   74.66     378   387.7     19.44
    6768   74.67     379   387.9     19.47
    6769   74.68     385   388.1     19.62
    6770   74.69     373   388.3     19.31
    6771   74.70     382   388.5     19.54
    6772   74.71     386   388.7     19.65
    6773   74.72     380   388.9     19.49
    6774   74.73     386   389.2     19.65
    6775   74.74     381   389.4     19.52
    6776   74.75     379   389.7     19.47
    6777   74.76     388     390     19.70
    6778   74.77     384   390.3     19.60
    6779   74.78     371   390.5     19.26
    6780   74.79     376   390.8     19.39
    6781   74.80     372   391.1     19.29
    6782   74.81     375   391.4     19.36
    6783   74.82     379   391.7     19.47
    6784   74.83     378     392     19.44
    6785   74.84     372   392.3     19.29
    6786   74.85     380   392.6     19.49
    6787   74.86     379   392.9     19.47
    6788   74.87     372   393.2     19.29
    6789   74.88     377   393.6     19.42
    6790   74.89     377   393.9     19.42
    6791   74.90     368   394.2     19.18
    6792   74.91     387   394.6     19.67
    6793   74.92     380   394.9     19.49
    6794   74.93     387   395.2     19.67
    6795   74.94     373   395.6     19.31
    6796   74.95     389   395.9     19.72
    6797   74.96     378   396.3     19.44
    6798   74.97     389   396.7     19.72
    6799   74.98     388     397     19.70
    6800   74.99     384   397.4     19.60
    6801   75.00     372   397.8     19.29


# The following lines are used to test the character set of files sent by
# network email or other means. They are not part of the CIF data set.
# abcdefghijklmnopqrstuvwxyzABCDEFGHIJKLMNOPQRSTUVWXYZ0123456789
# !@#$%^&*()_+{}:"~<>?|\-=[];'`,./                 



data_Mg2Si_100K_LT
_database_code_depnum_ccdc_archive 'CCDC 1577026'

loop_
  _audit_conform_dict_name
  _audit_conform_dict_version
  _audit_conform_dict_location
     cif_core.dic .  ftp://ftp.iucr.org/pub/cif_core.dic
     cif_pd.dic .  ftp://ftp.iucr.org/pub/cif_pd.dic
     
# 5. CHEMICAL DATA

_chemical_name_systematic                  
; 
magnesium silicide
;
_chemical_name_common          'magnesium silicide'
_chemical_formula_moiety          'Si, 2(Mg)'    
_chemical_formula_structural      'Mg2 Si'        
_chemical_formula_analytical      ?
_chemical_formula_sum             'Mg2 Si'         
_chemical_formula_weight          76.7       
_chemical_melting_point           ?
_chemical_compound_source         ?       # for minerals and 
                                          # natural products

loop_                                      
     _atom_type_symbol                     
     _atom_type_scat_dispersion_real
     _atom_type_scat_dispersion_imag
     _atom_type_scat_source                
Mg    0.0158    0.0173    
'International Tables Vol C Tables 4.2.6.8 and 6.1.1.4'
Si     0.0308    0.0342   
'International Tables Vol C Tables 4.2.6.8 and 6.1.1.4'

#==============================================================================

# 6. POWDER SPECIMEN AND CRYSTAL DATA

_space_group_crystal_system            cubic       
_space_group_name_H-M_alt    'F m -3 m'        
_space_group_name_Hall         '-F 4 2 3'

loop_                                      
      _symmetry_equiv_pos_site_id          
      _symmetry_equiv_pos_as_xyz         
      1   x,y,z
      2   -x,-y,z
      3   -x,y,-z
      4   x,-y,-z
      5   z,x,y
      6   z,-x,-y
      7   -z,-x,y
      8   -z,x,-y
      9   y,z,x
      10  -y,z,-x
      11  y,-z,-x
      12  -y,-z,x
      13  y,x,-z
      14  -y,-x,-z
      15  y,-x,z
      16  -y,x,z
      17  x,z,-y
      18  -x,z,y
      19  -x,-z,-y
      20  x,-z,y
      21  z,y,-x
      22  z,-y,x
      23  -z,y,x
      24  -z,-y,-x
      25  -x,-y,-z
      26  x,y,-z
      27  x,-y,z
      28  -x,y,z
      29  -z,-x,-y
      30  -z,x,y
      31  z,x,-y
      32  z,-x,y
      33  -y,-z,-x
      34  y,-z,x
      35  -y,z,x
      36  y,z,-x
      37  -y,-x,z
      38  y,x,z
      39  -y,x,-z
      40  y,-x,-z
      41  -x,-z,y
      42  x,-z,-y
      43  x,z,y
      44  -x,z,-y
      45  -z,-y,x
      46  -z,y,-x
      47  z,-y,-x
      48  z,y,x
      49  x,y+1/2,z+1/2
      50  -x,-y+1/2,z+1/2
      51  -x,y+1/2,-z+1/2
      52  x,-y+1/2,-z+1/2
      53  z,x+1/2,y+1/2
      54  z,-x+1/2,-y+1/2
      55  -z,-x+1/2,y+1/2
      56  -z,x+1/2,-y+1/2
      57  y,z+1/2,x+1/2
      58  -y,z+1/2,-x+1/2
      59  y,-z+1/2,-x+1/2
      60  -y,-z+1/2,x+1/2
      61  y,x+1/2,-z+1/2
      62  -y,-x+1/2,-z+1/2
      63  y,-x+1/2,z+1/2
      64  -y,x+1/2,z+1/2
      65  x,z+1/2,-y+1/2
      66  -x,z+1/2,y+1/2
      67  -x,-z+1/2,-y+1/2
      68  x,-z+1/2,y+1/2
      69  z,y+1/2,-x+1/2
      70  z,-y+1/2,x+1/2
      71  -z,y+1/2,x+1/2
      72  -z,-y+1/2,-x+1/2
      73  -x,-y+1/2,-z+1/2
      74  x,y+1/2,-z+1/2
      75  x,-y+1/2,z+1/2
      76  -x,y+1/2,z+1/2
      77  -z,-x+1/2,-y+1/2
      78  -z,x+1/2,y+1/2
      79  z,x+1/2,-y+1/2
      80  z,-x+1/2,y+1/2
      81  -y,-z+1/2,-x+1/2
      82  y,-z+1/2,x+1/2
      83  -y,z+1/2,x+1/2
      84  y,z+1/2,-x+1/2
      85  -y,-x+1/2,z+1/2
      86  y,x+1/2,z+1/2
      87  -y,x+1/2,-z+1/2
      88  y,-x+1/2,-z+1/2
      89  -x,-z+1/2,y+1/2
      90  x,-z+1/2,-y+1/2
      91  x,z+1/2,y+1/2
      92  -x,z+1/2,-y+1/2
      93  -z,-y+1/2,x+1/2
      94  -z,y+1/2,-x+1/2
      95  z,-y+1/2,-x+1/2
      96  z,y+1/2,x+1/2
      97  x+1/2,y,z+1/2
      98  -x+1/2,-y,z+1/2
      99  -x+1/2,y,-z+1/2
      100 x+1/2,-y,-z+1/2
      101 z+1/2,x,y+1/2
      102 z+1/2,-x,-y+1/2
      103 -z+1/2,-x,y+1/2
      104 -z+1/2,x,-y+1/2
      105 y+1/2,z,x+1/2
      106 -y+1/2,z,-x+1/2
      107 y+1/2,-z,-x+1/2
      108 -y+1/2,-z,x+1/2
      109 y+1/2,x,-z+1/2
      110 -y+1/2,-x,-z+1/2
      111 y+1/2,-x,z+1/2
      112 -y+1/2,x,z+1/2
      113 x+1/2,z,-y+1/2
      114 -x+1/2,z,y+1/2
      115 -x+1/2,-z,-y+1/2
      116 x+1/2,-z,y+1/2
      117 z+1/2,y,-x+1/2
      118 z+1/2,-y,x+1/2
      119 -z+1/2,y,x+1/2
      120 -z+1/2,-y,-x+1/2
      121 -x+1/2,-y,-z+1/2
      122 x+1/2,y,-z+1/2
      123 x+1/2,-y,z+1/2
      124 -x+1/2,y,z+1/2
      125 -z+1/2,-x,-y+1/2
      126 -z+1/2,x,y+1/2
      127 z+1/2,x,-y+1/2
      128 z+1/2,-x,y+1/2
      129 -y+1/2,-z,-x+1/2
      130 y+1/2,-z,x+1/2
      131 -y+1/2,z,x+1/2
      132 y+1/2,z,-x+1/2
      133 -y+1/2,-x,z+1/2
      134 y+1/2,x,z+1/2
      135 -y+1/2,x,-z+1/2
      136 y+1/2,-x,-z+1/2
      137 -x+1/2,-z,y+1/2
      138 x+1/2,-z,-y+1/2
      139 x+1/2,z,y+1/2
      140 -x+1/2,z,-y+1/2
      141 -z+1/2,-y,x+1/2
      142 -z+1/2,y,-x+1/2
      143 z+1/2,-y,-x+1/2
      144 z+1/2,y,x+1/2
      145 x+1/2,y+1/2,z
      146 -x+1/2,-y+1/2,z
      147 -x+1/2,y+1/2,-z
      148 x+1/2,-y+1/2,-z
      149 z+1/2,x+1/2,y
      150 z+1/2,-x+1/2,-y
      151 -z+1/2,-x+1/2,y
      152 -z+1/2,x+1/2,-y
      153 y+1/2,z+1/2,x
      154 -y+1/2,z+1/2,-x
      155 y+1/2,-z+1/2,-x
      156 -y+1/2,-z+1/2,x
      157 y+1/2,x+1/2,-z
      158 -y+1/2,-x+1/2,-z
      159 y+1/2,-x+1/2,z
      160 -y+1/2,x+1/2,z
      161 x+1/2,z+1/2,-y
      162 -x+1/2,z+1/2,y
      163 -x+1/2,-z+1/2,-y
      164 x+1/2,-z+1/2,y
      165 z+1/2,y+1/2,-x
      166 z+1/2,-y+1/2,x
      167 -z+1/2,y+1/2,x
      168 -z+1/2,-y+1/2,-x
      169 -x+1/2,-y+1/2,-z
      170 x+1/2,y+1/2,-z
      171 x+1/2,-y+1/2,z
      172 -x+1/2,y+1/2,z
      173 -z+1/2,-x+1/2,-y
      174 -z+1/2,x+1/2,y
      175 z+1/2,x+1/2,-y
      176 z+1/2,-x+1/2,y
      177 -y+1/2,-z+1/2,-x
      178 y+1/2,-z+1/2,x
      179 -y+1/2,z+1/2,x
      180 y+1/2,z+1/2,-x
      181 -y+1/2,-x+1/2,z
      182 y+1/2,x+1/2,z
      183 -y+1/2,x+1/2,-z
      184 y+1/2,-x+1/2,-z
      185 -x+1/2,-z+1/2,y
      186 x+1/2,-z+1/2,-y
      187 x+1/2,z+1/2,y
      188 -x+1/2,z+1/2,-y
      189 -z+1/2,-y+1/2,x
      190 -z+1/2,y+1/2,-x
      191 z+1/2,-y+1/2,-x
      192 z+1/2,y+1/2,x


_cell_length_a                    6.334697(10)        
_cell_length_b                    6.334697(10)        
_cell_length_c                    6.334697(10)        
_cell_angle_alpha                 90.0        
_cell_angle_beta                  90.0       
_cell_angle_gamma                90.0        
_cell_volume                      254.2012(7)        
_cell_formula_units_Z             4        
_cell_measurement_temperature     100        

_cell_special_details
; ?
;

# The next three fields give the specimen dimensions in mm.  The equatorial 
# plane contains the incident and diffracted beam.

_pd_spec_size_axial               ?       # perpendicular to 
                                          # equatorial plane

_pd_spec_size_equat               ?       # parallel to 
                                          # scattering vector 
                                          # in transmission

_pd_spec_size_thick               ?       # parallel to 
                                          # scattering vector 
                                          # in reflection

# The next five fields are character fields that describe the specimen.

_pd_spec_mounting                         # This field should be
                                          # used to give details of the 
                                          # container.
; ?
;
_pd_spec_mount_mode               ?       # options are 'reflection' 
                                          # or 'transmission'
    
_pd_spec_shape                    ?       # options are 'cylinder' 
                                          # 'flat_sheet' or 'irregular'

_pd_char_particle_morphology      ?
_pd_char_colour                   Black


# The following three fields describe the preparation of the specimen.   
# The cooling rate is in K/min.  The pressure at which the sample was  
# prepared is in kPa.  The temperature of preparation is in K.
               
_pd_prep_cool_rate                ?        
_pd_prep_pressure                 ?        
_pd_prep_temperature              ?        

# The next four fields are normally only needed for transmission experiments.
_exptl_absorpt_coefficient_mu     ?
_exptl_absorpt_correction_type    ?       # include if applicable
_exptl_absorpt_process_details    ?       # include if applicable
_exptl_absorpt_correction_T_min   ?       # include if applicable
_exptl_absorpt_correction_T_max   ?       # include if applicable

#==============================================================================

# 7. EXPERIMENTAL DATA

_exptl_special_details
; ?
;

# The following item is used to identify the equipment used to record 
# the powder pattern when the diffractogram was measured at a laboratory 
# other than the authors' home institution, e.g. when neutron or synchrotron
# radiation is used.

_pd_instr_location
; ?
;
_pd_calibration_special_details           # description of the method used
                                          # to calibrate the instrument
; ?
;

_diffrn_ambient_temperature       100       
_diffrn_source                    synchrotron
_diffrn_source_target             ?
_diffrn_source_type               'SPring-8 BL44B2'
_diffrn_radiation_type            synchrotron      
_diffrn_measurement_device_type   'Large Debye-Scherrer camera'      
_diffrn_detector                  'Imaging Plate'       
_diffrn_detector_type             ?       # make or model of detector

_pd_meas_scan_method              ?       # options are 'step', 'cont',
                                          # 'tof', 'fixed' or
                                          # 'disp' (= dispersive)
_pd_meas_special_details
;  ?
;

# The following six items are used for angular dispersive measurements only.

_diffrn_radiation_wavelength      0.49935       
_diffrn_radiation_monochromator   Si(111)        

#  The following four items give details of the measured (not processed)
#  powder pattern.  Angles are in degrees.

_pd_meas_number_of_points         7815
_pd_meas_2theta_range_min         0.01        
_pd_meas_2theta_range_max         78.15        
_pd_meas_2theta_range_inc         0.01        

# The following three items are used for time-of-flight measurements only.

_pd_instr_dist_src/spec           ?        
_pd_instr_dist_spec/detc          ?        
_pd_meas_2theta_fixed             ?        


#==============================================================================

# 8. REFINEMENT DATA

# Use the next field to give any special details about the fitting of the
# powder pattern.

_pd_proc_ls_special_details
; ?
;

# The next three items are given as text.

_pd_proc_ls_profile_function      'Pseudo-Voigt'        
_pd_proc_ls_background_function   '12 degree polynominal'
_pd_proc_ls_pref_orient_corr        none       

_pd_proc_ls_prof_R_factor         0.0256        
_pd_proc_ls_prof_wR_factor        0.0351        
_pd_proc_ls_prof_wR_expected      ?        
_refine_ls_R_I_factor             0.0406
_refine_ls_R_Fsqd_factor          ?
_refine_ls_R_factor_all           ?

_refine_special_details
; ?
;

_refine_ls_matrix_type            ?        
_refine_ls_weighting_scheme   ?  # options are 'sigma' (based on measured su's)
                                 # or 'calc' (calculated weights)
_refine_ls_weighting_details      ?
_refine_ls_hydrogen_treatment     ?        
_refine_ls_extinction_method      ?        
_refine_ls_extinction_coef        ?         
_refine_ls_number_parameters      32        
_refine_ls_number_restraints      0        
_refine_ls_number_constraints     ?        

# The following item is the same as CHI, the square root of 'CHI squared'
_refine_ls_goodness_of_fit_all    1.00       
      
_refine_ls_restrained_S_all       ?        
_refine_ls_shift/su_max           0.05        
_refine_ls_shift/su_mean          ?

# The following four items apply to angular dispersive measurements.
# 2theta minimum, maximum and increment (in degrees) are for the 
# intensities used in the refinement.

_pd_proc_2theta_range_min         7.00        
_pd_proc_2theta_range_max         75.00        
_pd_proc_2theta_range_inc         0.01        
_pd_proc_wavelength               ?        

# Each refinement must be accompanied by a listing of the powder data
# in CIF format. Each listing should be sent as a separate file consisting 
# of one data block containing a single powder profile. The value of 
# _pd_block_diffractogram_id is used to associate each refinement with 
# its corresponding powder profile, since it must match the value
# of _pd_block_id in the file containing the powder data. A template 
# for supplying powder data in CIF format is available by ftp at
# ftp://ftp.iucr.org/pub/rietdataform.cif and an example is given 
# at ftp://ftp.iucr.org/pub/rietdataxmpl.cif.

_pd_block_diffractogram_id        Mg2Si_100K_LT  


# Give appropriate details in the next two text fields.

_pd_proc_info_excluded_regions    ?        
_pd_proc_info_data_reduction      ?

# The following items are used to identify the programs used.

_computing_data_collection        ?        
_computing_cell_refinement        ?
_computing_data_reduction         ?                   
_computing_structure_solution     ?        
_computing_structure_refinement   ?       
_computing_molecular_graphics     ?
_computing_publication_material   ?


#==============================================================================


# 9. ATOMIC COORDINATES AND DISPLACEMENT PARAMETERS

loop_
       _atom_site_label 
       _atom_site_type_symbol                   
       _atom_site_fract_x                  
       _atom_site_fract_y                  
       _atom_site_fract_z                  
       _atom_site_U_iso_or_equiv      
       _atom_site_adp_type
       _atom_site_occupancy                     
    Mg1 Mg  0.25  0.25   0.25  0.00572(6) Uiso 1
    Si1 Si   0      0       0     0.00448(6) Uiso 1

# Note: if the displacement parameters were refined anisotropically 
# the U matrices should be given as for single-crystal studies.


#==============================================================================


# 10. MOLECULAR GEOMETRY

_geom_special_details             ?

loop_
       _geom_bond_atom_site_label_1
       _geom_bond_atom_site_label_2
       _geom_bond_distance
       Mg1 Si1 2.743004(4)

      loop_
      _geom_angle_atom_site_label_1
      _geom_angle_atom_site_label_2
      _geom_angle_atom_site_label_3
      _geom_angle
      Mg1 Si1 Mg1 70.529

#==============================================================================
# Additional structures (sections 5-10 and associated data_? identifiers)
# may be added at this point.
#==============================================================================

# The following lines are used to test the character set of files sent by
# network email or other means. They are not part of the CIF data set.
# abcdefghijklmnopqrstuvwxyzABCDEFGHIJKLMNOPQRSTUVWXYZ0123456789
# !@#$%^&*()_+{}:"~<>?|\-=[];'`,./                 


#==============================================================================




# powder data simulated using PLATON:

data_Mg2Si_100K_LT_simulated_0.49935

_publcif_pd_cifplot 'simulated 2021-03-25'

