data_profile1

_pd_block_id      Mg2Sn_100K_LT


loop_
 _pd_proc_point_id
 _pd_proc_2theta_corrected
 _pd_proc_intensity_net
 _pd_calc_intensity_net
 _pd_proc_ls_weight              
      1    5.50    1037   1058.1     32.20
      2    5.51    1058   1058.1     32.53
      3    5.52    1049   1058.1     32.39
      4    5.53    1052   1058.2     32.43
      5    5.54    1048   1058.2     32.37
      6    5.55    1050   1058.3     32.40
      7    5.56    1050   1058.3     32.40
      8    5.57    1057   1058.3     32.51
      9    5.58    1064   1058.4     32.62
     10    5.59    1063   1058.4     32.60
     11    5.60    1070   1058.5     32.71
     12    5.61    1065   1058.5     32.63
     13    5.62    1059   1058.6     32.54
     14    5.63    1068   1058.6     32.68
     15    5.64    1055   1058.7     32.48
     16    5.65    1072   1058.7     32.74
     17    5.66    1066   1058.8     32.65
     18    5.67    1053   1058.9     32.45
     19    5.68    1060   1058.9     32.56
     20    5.69    1060     1059     32.56
     21    5.70    1061   1059.1     32.57
     22    5.71    1054   1059.1     32.47
     23    5.72    1073   1059.2     32.76
     24    5.73    1058   1059.3     32.53
     25    5.74    1081   1059.4     32.88
     26    5.75    1088   1059.4     32.98
     27    5.76    1073   1059.5     32.76
     28    5.77    1058   1059.6     32.53
     29    5.78    1070   1059.7     32.71
     30    5.79    1074   1059.8     32.77
     31    5.80    1079   1059.9     32.85
     32    5.81    1093     1060     33.06
     33    5.82    1086   1060.1     32.95
     34    5.83    1068   1060.2     32.68
     35    5.84    1076   1060.3     32.80
     36    5.85    1089   1060.5     33.00
     37    5.86    1076   1060.6     32.80
     38    5.87    1091   1060.7     33.03
     39    5.88    1082   1060.9     32.89
     40    5.89    1077     1061     32.82
     41    5.90    1080   1061.1     32.86
     42    5.91    1073   1061.3     32.76
     43    5.92    1087   1061.4     32.97
     44    5.93    1099   1061.6     33.15
     45    5.94    1091   1061.8     33.03
     46    5.95    1099   1061.9     33.15
     47    5.96    1094   1062.1     33.08
     48    5.97    1096   1062.3     33.11
     49    5.98    1077   1062.5     32.82
     50    5.99    1094   1062.7     33.08
     51    6.00    1093   1062.9     33.06
     52    6.01    1092   1063.1     33.05
     53    6.02    1099   1063.3     33.15
     54    6.03    1105   1063.6     33.24
     55    6.04    1075   1063.8     32.79
     56    6.05    1072     1064     32.74
     57    6.06    1082   1064.3     32.89
     58    6.07    1088   1064.5     32.98
     59    6.08    1089   1064.8     33.00
     60    6.09    1082   1065.1     32.89
     61    6.10    1093   1065.4     33.06
     62    6.11    1113   1065.7     33.36
     63    6.12    1100     1066     33.17
     64    6.13    1100   1066.3     33.17
     65    6.14    1103   1066.6     33.21
     66    6.15    1086     1067     32.95
     67    6.16    1075   1067.3     32.79
     68    6.17    1098   1067.7     33.14
     69    6.18    1088   1068.1     32.98
     70    6.19    1107   1068.5     33.27
     71    6.20    1106   1068.9     33.26
     72    6.21    1082   1069.3     32.89
     73    6.22    1090   1069.7     33.02
     74    6.23    1097   1070.2     33.12
     75    6.24    1115   1070.7     33.39
     76    6.25    1102   1071.1     33.20
     77    6.26    1102   1071.6     33.20
     78    6.27    1091   1072.1     33.03
     79    6.28    1099   1072.7     33.15
     80    6.29    1121   1073.2     33.48
     81    6.30    1092   1073.8     33.05
     82    6.31    1110   1074.4     33.32
     83    6.32    1114     1075     33.38
     84    6.33    1109   1075.6     33.30
     85    6.34    1111   1076.3     33.33
     86    6.35    1105     1077     33.24
     87    6.36    1100   1077.7     33.17
     88    6.37    1088   1078.4     32.98
     89    6.38    1107   1079.2     33.27
     90    6.39    1126     1080     33.56
     91    6.40    1107   1080.8     33.27
     92    6.41    1118   1081.6     33.44
     93    6.42    1116   1082.5     33.41
     94    6.43    1117   1083.4     33.42
     95    6.44    1121   1084.3     33.48
     96    6.45    1116   1085.3     33.41
     97    6.46    1120   1086.3     33.47
     98    6.47    1128   1087.4     33.59
     99    6.48    1115   1088.5     33.39
    100    6.49    1127   1089.6     33.57
    101    6.50    1109   1092.4     33.30
    102    6.51    1135   1093.7     33.69
    103    6.52    1118     1095     33.44
    104    6.53    1112   1096.3     33.35
    105    6.54    1115   1097.7     33.39
    106    6.55    1128   1099.2     33.59
    107    6.56    1130   1100.7     33.62
    108    6.57    1148   1102.3     33.88
    109    6.58    1119   1103.9     33.45
    110    6.59    1137   1105.6     33.72
    111    6.60    1136   1107.4     33.70
    112    6.61    1136   1109.3     33.70
    113    6.62    1143   1111.2     33.81
    114    6.63    1126   1113.2     33.56
    115    6.64    1135   1115.4     33.69
    116    6.65    1139   1117.6     33.75
    117    6.66    1137   1119.9     33.72
    118    6.67    1147   1122.3     33.87
    119    6.68    1158   1124.8     34.03
    120    6.69    1156   1127.5     34.00
    121    6.70    1138   1130.3     33.73
    122    6.71    1170   1133.2     34.21
    123    6.72    1177   1136.3     34.31
    124    6.73    1158   1139.5     34.03
    125    6.74    1174   1142.9     34.26
    126    6.75    1169   1146.4     34.19
    127    6.76    1169   1150.2     34.19
    128    6.77    1170   1154.1     34.21
    129    6.78    1178   1158.3     34.32
    130    6.79    1167   1162.7     34.16
    131    6.80    1180   1167.3     34.35
    132    6.81    1192   1172.2     34.53
    133    6.82    1198   1177.4     34.61
    134    6.83    1204   1182.9     34.70
    135    6.84    1193   1188.7     34.54
    136    6.85    1217   1194.8     34.89
    137    6.86    1228   1201.4     35.04
    138    6.87    1221   1208.4     34.94
    139    6.88    1218   1215.8     34.90
    140    6.89    1245   1223.7     35.28
    141    6.90    1244   1232.1     35.27
    142    6.91    1275   1241.2     35.71
    143    6.92    1264   1250.9     35.55
    144    6.93    1276   1261.2     35.72
    145    6.94    1277   1272.4     35.74
    146    6.95    1294   1284.4     35.97
    147    6.96    1294   1297.3     35.97
    148    6.97    1302   1311.3     36.08
    149    6.98    1320   1326.4     36.33
    150    6.99    1326   1342.7     36.41
    151    7.00    1333   1360.5     36.51
    152    7.01    1343   1379.9     36.65
    153    7.02    1334   1401.1     36.52
    154    7.03    1351   1424.3     36.76
    155    7.04    1381   1449.7     37.16
    156    7.05    1389   1477.7     37.27
    157    7.06    1410   1508.6     37.55
    158    7.07    1439   1542.9     37.93
    159    7.08    1461     1581     38.22
    160    7.09    1485   1623.6     38.54
    161    7.10    1534   1671.3     39.17
    162    7.11    1566     1725     39.57
    163    7.12    1606   1785.8     40.07
    164    7.13    1658     1855     40.72
    165    7.14    1726   1934.1     41.55
    166    7.15    1789   2025.2     42.30
    167    7.16    1876   2130.8     43.31
    168    7.17    1939   2254.2     44.03
    169    7.18    2069   2399.4     45.49
    170    7.19    2225   2572.1     47.17
    171    7.20    2358   2779.5     48.56
    172    7.21    2557   3031.6     50.57
    173    7.22    2832   3342.1     53.22
    174    7.23    3188   3730.8     56.46
    175    7.24    3651   4227.8     60.42
    176    7.25    4372   4885.3     66.12
    177    7.26    5427   5808.7     73.67
    178    7.27    7022   7235.7     83.80
    179    7.28    9707   9698.6     98.52
    180    7.29   14177  14263.3    119.07
    181    7.30   22453  22717.6    149.84
    182    7.31   38261  37469.7    195.60
    183    7.32   65378  61197.2    255.69
    184    7.33  108128  96966.2    328.83
    185    7.34  155611 146894.1    394.48
    186    7.35  173214 186393.8    416.19
    187    7.36  144560 150450.1    380.21
    188    7.37   96781  91190.1    311.10
    189    7.38   55677  51913.3    235.96
    190    7.39   30426  28489.9    174.43
    191    7.40   17124  15935.3    130.86
    192    7.41   10531   9856.9    102.62
    193    7.42    6902   6963.2     83.08
    194    7.43    4973   5435.1     70.52
    195    7.44    3843   4490.7     61.99
    196    7.45    3169   3835.4     56.29
    197    7.46    2707   3352.2     52.03
    198    7.47    2389   2983.8     48.88
    199    7.48    2160   2696.4     46.48
    200    7.49    1993   2467.9     44.64
    201    7.50    1872   2283.3     43.27
    202    7.51    1748     2132     41.81
    203    7.52    1660   2006.6     40.74
    204    7.53    1606   1901.4     40.07
    205    7.54    1530   1812.4     39.12
    206    7.55    1479   1736.3     38.46
    207    7.56    1456   1670.9     38.16
    208    7.57    1415   1614.2     37.62
    209    7.58    1390   1564.7     37.28
    210    7.59    1373   1521.3     37.05
    211    7.60    1318     1483     36.30
    212    7.61    1305   1449.1     36.12
    213    7.62    1290   1418.9     35.92
    214    7.63    1279   1391.9     35.76
    215    7.64    1264   1367.6     35.55
    216    7.65    1247   1345.7     35.31
    217    7.66    1244     1326     35.27
    218    7.67    1245   1308.1     35.28
    219    7.68    1215   1291.8     34.86
    220    7.69    1210   1276.9     34.79
    221    7.70    1206   1263.4     34.73
    222    7.71    1186   1250.9     34.44
    223    7.72    1175   1239.5     34.28
    224    7.73    1189     1229     34.48
    225    7.74    1185   1219.3     34.42
    226    7.75    1169   1210.4     34.19
    227    7.76    1175   1202.1     34.28
    228    7.77    1162   1194.5     34.09
    229    7.78    1157   1187.4     34.01
    230    7.79    1164   1180.8     34.12
    231    7.80    1163   1174.6     34.10
    232    7.81    1169     1169     34.19
    233    7.82    1178   1163.7     34.32
    234    7.83    1156   1158.7     34.00
    235    7.84    1154   1154.1     33.97
    236    7.85    1155   1152.1     33.99
    237    7.86    1148   1148.2     33.88
    238    7.87    1153   1144.5     33.96
    239    7.88    1153     1141     33.96
    240    7.89    1126   1137.8     33.56
    241    7.90    1150   1134.9     33.91
    242    7.91    1147   1132.1     33.87
    243    7.92    1155   1129.6     33.99
    244    7.93    1136   1127.2     33.70
    245    7.94    1131   1125.1     33.63
    246    7.95    1130   1123.1     33.62
    247    7.96    1117   1121.3     33.42
    248    7.97    1143   1119.6     33.81
    249    7.98    1137   1118.2     33.72
    250    7.99    1128   1116.9     33.59
    251    8.00    1139   1115.7     33.75
    252    8.01    1117   1114.7     33.42
    253    8.02    1116   1113.9     33.41
    254    8.03    1126   1113.2     33.56
    255    8.04    1119   1112.7     33.45
    256    8.05    1108   1112.4     33.29
    257    8.06    1125   1112.2     33.54
    258    8.07    1119   1112.2     33.45
    259    8.08    1116   1112.4     33.41
    260    8.09    1145   1112.8     33.84
    261    8.10    1131   1113.4     33.63
    262    8.11    1115   1114.2     33.39
    263    8.12    1116   1115.3     33.41
    264    8.13    1107   1116.6     33.27
    265    8.14    1122   1118.1     33.50
    266    8.15    1131     1120     33.63
    267    8.16    1110   1122.2     33.32
    268    8.17    1125   1124.7     33.54
    269    8.18    1126   1127.7     33.56
    270    8.19    1133   1131.1     33.66
    271    8.20    1120     1135     33.47
    272    8.21    1134   1139.4     33.67
    273    8.22    1137   1144.5     33.72
    274    8.23    1136   1150.4     33.70
    275    8.24    1158     1157     34.03
    276    8.25    1151   1164.7     33.93
    277    8.26    1160   1173.6     34.06
    278    8.27    1174   1183.7     34.26
    279    8.28    1168   1195.6     34.18
    280    8.29    1192   1209.3     34.53
    281    8.30    1215   1227.4     34.86
    282    8.31    1227   1246.4     35.03
    283    8.32    1246   1268.8     35.30
    284    8.33    1293   1295.7     35.96
    285    8.34    1315   1328.2     36.26
    286    8.35    1343   1367.8     36.65
    287    8.36    1412   1416.7     37.58
    288    8.37    1468   1478.3     38.31
    289    8.38    1573   1557.4     39.66
    290    8.39    1710   1663.3     41.35
    291    8.40    1907     1815     43.67
    292    8.41    2209   2054.7     47.00
    293    8.42    2694   2471.9     51.90
    294    8.43    3492   3234.8     59.09
    295    8.44    4884   4606.1     69.89
    296    8.45    7397   6920.4     86.01
    297    8.46   11513  10539.8    107.30
    298    8.47   17658  15888.1    132.88
    299    8.48   24204  23172.8    155.58
    300    8.49   26619    28653    163.15
    301    8.50   22836    23755    151.12
    302    8.51   16226  15372.7    127.38
    303    8.52   10138   9532.3    100.69
    304    8.53    6237   5863.6     78.97
    305    8.54    4062   3747.5     63.73
    306    8.55    2909   2640.5     53.94
    307    8.56    2251     2089     47.44
    308    8.57    1891   1801.4     43.49
    309    8.58    1669   1631.2     40.85
    310    8.59    1519   1516.8     38.97
    311    8.60    1408   1433.3     37.52
    312    8.61    1327   1369.8     36.43
    313    8.62    1293   1320.1     35.96
    314    8.63    1235   1280.5     35.14
    315    8.64    1205   1248.4     34.71
    316    8.65    1167     1222     34.16
    317    8.66    1174     1200     34.26
    318    8.67    1159   1181.6     34.04
    319    8.68    1130   1165.9     33.62
    320    8.69    1132   1152.4     33.65
    321    8.70    1127   1140.8     33.57
    322    8.71    1110   1130.6     33.32
    323    8.72    1113   1121.7     33.36
    324    8.73    1101   1113.9     33.18
    325    8.74    1099     1107     33.15
    326    8.75    1103   1100.8     33.21
    327    8.76    1082   1095.2     32.89
    328    8.77    1098   1090.2     33.14
    329    8.78    1090   1085.7     33.02
    330    8.79    1086   1081.6     32.95
    331    8.80    1072   1077.9     32.74
    332    8.81    1073   1074.4     32.76
    333    8.82    1093   1071.3     33.06
    334    8.83    1057   1068.5     32.51
    335    8.84    1079   1065.8     32.85
    336    8.85    1075   1063.4     32.79
    337    8.86    1073   1061.1     32.76
    338    8.87    1086     1059     32.95
    339    8.88    1061     1057     32.57
    340    8.89    1067   1055.2     32.66
    341    8.90    1083   1053.5     32.91
    342    8.91    1070   1051.9     32.71
    343    8.92    1065   1050.4     32.63
    344    8.93    1070   1049.1     32.71
    345    8.94    1054   1047.7     32.47
    346    8.95    1070   1046.5     32.71
    347    8.96    1055   1045.4     32.48
    348    8.97    1050   1044.3     32.40
    349    8.98    1058   1043.3     32.53
    350    8.99    1065   1042.3     32.63
    351    9.00    1062   1041.4     32.59
    352    9.01    1053   1040.6     32.45
    353    9.02    1053   1039.8     32.45
    354    9.03    1056     1039     32.50
    355    9.04    1055   1038.3     32.48
    356    9.05    1063   1037.7     32.60
    357    9.06    1055   1037.1     32.48
    358    9.07    1058   1036.5     32.53
    359    9.08    1064     1036     32.62
    360    9.09    1059   1035.5     32.54
    361    9.10    1058   1035.1     32.53
    362    9.11    1066   1034.7     32.65
    363    9.12    1058   1034.3     32.53
    364    9.13    1053     1034     32.45
    365    9.14    1062   1033.7     32.59
    366    9.15    1082   1033.4     32.89
    367    9.16    1061   1033.2     32.57
    368    9.17    1063   1033.1     32.60
    369    9.18    1057   1032.9     32.51
    370    9.19    1052   1032.8     32.43
    371    9.20    1055   1032.8     32.48
    372    9.21    1059   1032.8     32.54
    373    9.22    1067   1032.8     32.66
    374    9.23    1090   1032.9     33.02
    375    9.24    1085   1033.1     32.94
    376    9.25    1073   1033.3     32.76
    377    9.26    1086   1033.5     32.95
    378    9.27    1076   1033.8     32.80
    379    9.28    1062   1034.2     32.59
    380    9.29    1069   1034.6     32.70
    381    9.30    1075   1035.1     32.79
    382    9.31    1071   1035.6     32.73
    383    9.32    1089   1036.3     33.00
    384    9.33    1084     1037     32.92
    385    9.34    1069   1037.7     32.70
    386    9.35    1085   1038.6     32.94
    387    9.36    1076   1032.7     32.80
    388    9.37    1081   1033.8     32.88
    389    9.38    1086   1035.1     32.95
    390    9.39    1100   1036.5     33.17
    391    9.40    1121     1038     33.48
    392    9.41    1104   1039.6     33.23
    393    9.42    1113   1041.4     33.36
    394    9.43    1109   1043.4     33.30
    395    9.44    1109   1045.5     33.30
    396    9.45    1127   1047.9     33.57
    397    9.46    1121   1050.4     33.48
    398    9.47    1137   1053.2     33.72
    399    9.48    1139   1056.3     33.75
    400    9.49    1123   1059.7     33.51
    401    9.50    1150   1063.4     33.91
    402    9.51    1149   1067.4     33.90
    403    9.52    1159   1071.9     34.04
    404    9.53    1154   1076.8     33.97
    405    9.54    1177   1082.2     34.31
    406    9.55    1197   1088.2     34.60
    407    9.56    1200   1094.9     34.64
    408    9.57    1204   1102.3     34.70
    409    9.58    1215   1110.5     34.86
    410    9.59    1246   1119.7     35.30
    411    9.60    1270   1130.1     35.64
    412    9.61    1276   1141.9     35.72
    413    9.62    1303   1155.4     36.10
    414    9.63    1325     1171     36.40
    415    9.64    1343   1189.6     36.65
    416    9.65    1381     1212     37.16
    417    9.66    1453   1239.9     38.12
    418    9.67    1472   1275.5     38.37
    419    9.68    1560   1321.9     39.50
    420    9.69    1610   1383.6     40.12
    421    9.70    1690   1466.4     41.11
    422    9.71    1788   1577.2     42.28
    423    9.72    1936   1724.5     44.00
    424    9.73    2064   1917.2     45.43
    425    9.74    2308   2163.9     48.04
    426    9.75    2508   2471.9     50.08
    427    9.76    2775   2845.1     52.68
    428    9.77    3161   3282.5     56.22
    429    9.78    3596   3776.5     59.97
    430    9.79    4176   4311.2     64.62
    431    9.80    4827   4860.8     69.48
    432    9.81    5474     5388     73.99
    433    9.82    6069   5843.7     77.90
    434    9.83    6575   6172.2     81.09
    435    9.84    6749   6323.5     82.15
    436    9.85    6661   6271.1     81.61
    437    9.86    6221   6024.8     78.87
    438    9.87    5621   5625.4     74.97
    439    9.88    4878     5128     69.84
    440    9.89    4257     4586     65.25
    441    9.90    3637   4042.5     60.31
    442    9.91    3170   3528.6     56.30
    443    9.92    2797   3065.1     52.89
    444    9.93    2523   2663.1     50.23
    445    9.94    2276   2326.9     47.71
    446    9.95    2122   2054.4     46.07
    447    9.96    1951   1840.1     44.17
    448    9.97    1845   1675.7     42.95
    449    9.98    1749   1552.4     41.82
    450    9.99    1712   1461.6     41.38
    451   10.00    1642   1395.4     40.52
    452   10.01    1599   1347.6     39.99
    453   10.02    1533   1313.3     39.15
    454   10.03    1522   1299.1     39.01
    455   10.04    1499     1282     38.72
    456   10.05    1482   1270.4     38.50
    457   10.06    1457   1263.3     38.17
    458   10.07    1472   1260.1     38.37
    459   10.08    1459   1260.8     38.20
    460   10.09    1481   1265.5     38.48
    461   10.10    1511   1274.9     38.87
    462   10.11    1508   1290.2     38.83
    463   10.12    1548   1313.2     39.34
    464   10.13    1582   1346.5     39.77
    465   10.14    1616     1394     40.20
    466   10.15    1703   1460.5     41.27
    467   10.16    1767   1552.2     42.04
    468   10.17    1834   1676.3     42.83
    469   10.18    1956   1840.5     44.23
    470   10.19    2124   2052.3     46.09
    471   10.20    2304   2317.9     48.00
    472   10.21    2536   2640.7     50.36
    473   10.22    2821   3019.8     53.11
    474   10.23    3197   3448.8     56.54
    475   10.24    3644     3914     60.37
    476   10.25    4225   4393.3     65.00
    477   10.26    4835   4854.6     69.53
    478   10.27    5373   5255.8     73.30
    479   10.28    5845   5548.4     76.45
    480   10.29    6008   5688.3     77.51
    481   10.30    5923   5650.9     76.96
    482   10.31    5581   5442.4     74.71
    483   10.32    5019   5096.8     70.84
    484   10.33    4408   4661.6     66.39
    485   10.34    3817   4183.6     61.78
    486   10.35    3290   3701.2     57.36
    487   10.36    2844   3242.4     53.33
    488   10.37    2543   2825.9     50.43
    489   10.38    2271   2462.4     47.66
    490   10.39    2026   2155.9     45.01
    491   10.40    1887   1905.5     43.44
    492   10.41    1724   1706.4     41.52
    493   10.42    1605   1551.7     40.06
    494   10.43    1555   1433.8     39.43
    495   10.44    1484   1344.9     38.52
    496   10.45    1404   1278.1     37.47
    497   10.46    1365   1227.8     36.95
    498   10.47    1333   1189.4     36.51
    499   10.48    1283   1159.4     35.82
    500   10.49    1251   1135.4     35.37
    501   10.50    1219   1114.4     34.91
    502   10.51    1194   1097.7     34.55
    503   10.52    1175   1083.4     34.28
    504   10.53    1152   1070.7     33.94
    505   10.54    1129   1059.5     33.60
    506   10.55    1118   1049.5     33.44
    507   10.56    1090   1040.4     33.02
    508   10.57    1093   1032.2     33.06
    509   10.58    1079   1024.7     32.85
    510   10.59    1052   1017.8     32.43
    511   10.60    1054   1011.5     32.47
    512   10.61    1041   1005.6     32.26
    513   10.62    1036   1000.2     32.19
    514   10.63    1032    995.2     32.12
    515   10.64    1017    990.6     31.89
    516   10.65    1021    986.2     31.95
    517   10.66     995    982.2     31.54
    518   10.67    1013    978.4     31.83
    519   10.68    1009    974.9     31.76
    520   10.69    1001    971.5     31.64
    521   10.70     994    968.4     31.53
    522   10.71     977    965.4     31.26
    523   10.72     988    962.6     31.43
    524   10.73     987      960     31.42
    525   10.74     977    957.5     31.26
    526   10.75     969    955.1     31.13
    527   10.76     978    952.9     31.27
    528   10.77     954    950.7     30.89
    529   10.78     963    948.7     31.03
    530   10.79     954    946.8     30.89
    531   10.80     957    944.9     30.94
    532   10.81     967    943.2     31.10
    533   10.82     952    941.5     30.85
    534   10.83     963    939.9     31.03
    535   10.84     951    938.4     30.84
    536   10.85     959    936.9     30.97
    537   10.86     941    935.5     30.68
    538   10.87     952    934.2     30.85
    539   10.88     943    932.9     30.71
    540   10.89     946    931.7     30.76
    541   10.90     936    930.6     30.59
    542   10.91     944    929.5     30.72
    543   10.92     942    928.4     30.69
    544   10.93     946    927.4     30.76
    545   10.94     925    926.5     30.41
    546   10.95     909    925.6     30.15
    547   10.96     921    924.7     30.35
    548   10.97     925    923.9     30.41
    549   10.98     922    923.1     30.36
    550   10.99     916    922.4     30.27
    551   11.00     922    921.7     30.36
    552   11.01     930    921.1     30.50
    553   11.02     933    920.5     30.55
    554   11.03     929      920     30.48
    555   11.04     911    919.5     30.18
    556   11.05     915    919.1     30.25
    557   11.06     906    918.6     30.10
    558   11.07     911    918.3     30.18
    559   11.08     909      918     30.15
    560   11.09     920    917.7     30.33
    561   11.10     918    917.5     30.30
    562   11.11     910    917.3     30.17
    563   11.12     906    917.2     30.10
    564   11.13     920    917.1     30.33
    565   11.14     904    917.1     30.07
    566   11.15     912    917.1     30.20
    567   11.16     896    917.2     29.93
    568   11.17     905    917.3     30.08
    569   11.18     913    917.5     30.22
    570   11.19     900    917.7     30.00
    571   11.20     900    918.1     30.00
    572   11.21     910    918.4     30.17
    573   11.22     899    918.9     29.98
    574   11.23     913    919.4     30.22
    575   11.24     904      920     30.07
    576   11.25     907    920.6     30.12
    577   11.26     908    921.3     30.13
    578   11.27     895    922.1     29.92
    579   11.28     906      923     30.10
    580   11.29     905      924     30.08
    581   11.30     920    925.1     30.33
    582   11.31     911    926.3     30.18
    583   11.32     904    927.5     30.07
    584   11.33     916    928.9     30.27
    585   11.34     909    930.4     30.15
    586   11.35     928      932     30.46
    587   11.36     918    933.8     30.30
    588   11.37     917    935.6     30.28
    589   11.38     908    937.7     30.13
    590   11.39     918    939.8     30.30
    591   11.40     914    942.2     30.23
    592   11.41     918    944.7     30.30
    593   11.42     919    947.3     30.32
    594   11.43     916    950.2     30.27
    595   11.44     907    953.3     30.12
    596   11.45     913    956.6     30.22
    597   11.46     921    960.1     30.35
    598   11.47     926    963.9     30.43
    599   11.48     939      968     30.64
    600   11.49     942    972.3     30.69
    601   11.50     939      977     30.64
    602   11.51     960    981.9     30.98
    603   11.52     964    987.3     31.05
    604   11.53     957    993.1     30.94
    605   11.54     962    999.2     31.02
    606   11.55     970   1005.9     31.14
    607   11.56     972     1013     31.18
    608   11.57     983   1020.7     31.35
    609   11.58     985     1029     31.38
    610   11.59     988   1037.9     31.43
    611   11.60    1008   1047.5     31.75
    612   11.61     996     1058     31.56
    613   11.62    1000   1069.2     31.62
    614   11.63    1025   1081.5     32.02
    615   11.64    1044   1094.7     32.31
    616   11.65    1037   1109.2     32.20
    617   11.66    1063   1124.9     32.60
    618   11.67    1070   1142.1     32.71
    619   11.68    1085   1160.9     32.94
    620   11.69    1107   1181.4     33.27
    621   11.70    1130   1204.1     33.62
    622   11.71    1152     1229     33.94
    623   11.72    1159   1256.5     34.04
    624   11.73    1170   1286.9     34.21
    625   11.74    1210   1320.8     34.79
    626   11.75    1260   1358.5     35.50
    627   11.76    1297   1400.8     36.01
    628   11.77    1331   1448.2     36.48
    629   11.78    1377   1501.7     37.11
    630   11.79    1445   1562.4     38.01
    631   11.80    1493   1631.5     38.64
    632   11.81    1588   1710.7     39.85
    633   11.82    1659   1801.9     40.73
    634   11.83    1737   1907.7     41.68
    635   11.84    1892   2031.4     43.50
    636   11.85    2012   2174.9     44.86
    637   11.86    2189   2348.1     46.79
    638   11.87    2399   2556.3     48.98
    639   11.88    2666   2809.5     51.63
    640   11.89    3039   3122.4     55.13
    641   11.90    3502   3518.1     59.18
    642   11.91    4127   4038.5     64.24
    643   11.92    4975   4765.7     70.53
    644   11.93    6286   5867.9     79.28
    645   11.94    8080   7672.6     89.89
    646   11.95   10955  10757.5    104.67
    647   11.96   15580    16005    124.82
    648   11.97   22723  24557.3    150.74
    649   11.98   34747  37675.3    186.41
    650   11.99   55295  56712.7    235.15
    651   12.00   84452  83308.8    290.61
    652   12.01  117671 116998.1    343.03
    653   12.02  135499 139901.8    368.10
    654   12.03  121655 121439.5    348.79
    655   12.04   89819  84807.2    299.70
    656   12.05   59103  55887.3    243.11
    657   12.06   36701  35785.1    191.58
    658   12.07   22656  22449.4    150.52
    659   12.08   14612  14177.8    120.88
    660   12.09    9942   9384.8     99.71
    661   12.10    7060   6709.5     84.02
    662   12.11    5301   5196.6     72.81
    663   12.12    4159   4266.9     64.49
    664   12.13    3365   3639.9     58.01
    665   12.14    2862   3181.3     53.50
    666   12.15    2504   2828.1     50.04
    667   12.16    2162   2547.7     46.50
    668   12.17    1975   2320.7     44.44
    669   12.18    1796   2134.4     42.38
    670   12.19    1655   1979.4     40.68
    671   12.20    1546   1849.2     39.32
    672   12.21    1442   1738.7     37.97
    673   12.22    1370   1644.2     37.01
    674   12.23    1327   1562.6     36.43
    675   12.24    1251   1491.8     35.37
    676   12.25    1209   1429.9     34.77
    677   12.26    1184   1375.4     34.41
    678   12.27    1156     1329     34.00
    679   12.28    1107   1286.2     33.27
    680   12.29    1098   1248.1     33.14
    681   12.30    1059   1211.8     32.54
    682   12.31    1042     1181     32.28
    683   12.32    1032   1153.2     32.12
    684   12.33    1014   1127.9     31.84
    685   12.34     977   1104.9     31.26
    686   12.35     988     1084     31.43
    687   12.36     977   1064.8     31.26
    688   12.37     942   1047.2     30.69
    689   12.38     947     1031     30.77
    690   12.39     940     1016     30.66
    691   12.40     910   1002.2     30.17
    692   12.41     922    989.3     30.36
    693   12.42     910    977.4     30.17
    694   12.43     918    966.4     30.30
    695   12.44     913      956     30.22
    696   12.45     908    946.4     30.13
    697   12.46     884    937.3     29.73
    698   12.47     896    928.9     29.93
    699   12.48     869    920.9     29.48
    700   12.49     874    913.4     29.56
    701   12.50     878    906.4     29.63
    702   12.51     858    899.8     29.29
    703   12.52     859    893.5     29.31
    704   12.53     867    887.6     29.44
    705   12.54     852      882     29.19
    706   12.55     859    876.7     29.31
    707   12.56     852    871.6     29.19
    708   12.57     844    866.8     29.05
    709   12.58     858    862.3     29.29
    710   12.59     841    857.9     29.00
    711   12.60     848    853.8     29.12
    712   12.61     856    849.9     29.26
    713   12.62     843    846.1     29.03
    714   12.63     833    842.5     28.86
    715   12.64     833    839.1     28.86
    716   12.65     842    835.8     29.02
    717   12.66     842    832.7     29.02
    718   12.67     830    829.6     28.81
    719   12.68     823    826.8     28.69
    720   12.69     826      824     28.74
    721   12.70     812    821.3     28.50
    722   12.71     828    818.8     28.77
    723   12.72     825    816.3     28.72
    724   12.73     821      814     28.65
    725   12.74     834    811.7     28.88
    726   12.75     833    809.6     28.86
    727   12.76     837    807.5     28.93
    728   12.77     844    805.5     29.05
    729   12.78     844    803.5     29.05
    730   12.79     850    801.7     29.15
    731   12.80     823    799.9     28.69
    732   12.81     840    798.1     28.98
    733   12.82     819    796.5     28.62
    734   12.83     852    794.9     29.19
    735   12.84     834    793.3     28.88
    736   12.85     833    791.8     28.86
    737   12.86     824    790.4     28.71
    738   12.87     825      789     28.72
    739   12.88     830    787.7     28.81
    740   12.89     827    786.4     28.76
    741   12.90     824    785.2     28.71
    742   12.91     826      784     28.74
    743   12.92     829    782.9     28.79
    744   12.93     811    781.8     28.48
    745   12.94     821    780.8     28.65
    746   12.95     821    779.8     28.65
    747   12.96     821    778.8     28.65
    748   12.97     811    777.9     28.48
    749   12.98     805      777     28.37
    750   12.99     808    776.2     28.43
    751   13.00     809    775.4     28.44
    752   13.01     840    774.7     28.98
    753   13.02     819      774     28.62
    754   13.03     813    773.3     28.51
    755   13.04     823    772.7     28.69
    756   13.05     812    772.1     28.50
    757   13.06     809    771.5     28.44
    758   13.07     812      771     28.50
    759   13.08     812    770.5     28.50
    760   13.09     826    770.1     28.74
    761   13.10     821    769.7     28.65
    762   13.11     839    769.3     28.97
    763   13.12     824      769     28.71
    764   13.13     825    768.7     28.72
    765   13.14     813    768.5     28.51
    766   13.15     835    768.3     28.90
    767   13.16     828    768.2     28.77
    768   13.17     834    769.1     28.88
    769   13.18     816      769     28.57
    770   13.19     831      769     28.83
    771   13.20     830      769     28.81
    772   13.21     823    769.1     28.69
    773   13.22     832    769.3     28.84
    774   13.23     826    769.4     28.74
    775   13.24     837    769.7     28.93
    776   13.25     839      770     28.97
    777   13.26     833    770.3     28.86
    778   13.27     822    770.7     28.67
    779   13.28     831    771.2     28.83
    780   13.29     834    771.7     28.88
    781   13.30     855    772.3     29.24
    782   13.31     850    772.9     29.15
    783   13.32     850    773.7     29.15
    784   13.33     843    774.4     29.03
    785   13.34     866    775.3     29.43
    786   13.35     860    776.2     29.33
    787   13.36     850    777.3     29.15
    788   13.37     860    778.4     29.33
    789   13.38     848    779.6     29.12
    790   13.39     862    780.9     29.36
    791   13.40     873    782.3     29.55
    792   13.41     873    783.8     29.55
    793   13.42     862    785.4     29.36
    794   13.43     888    787.1     29.80
    795   13.44     877    788.9     29.61
    796   13.45     890    790.9     29.83
    797   13.46     888      793     29.80
    798   13.47     886    795.3     29.77
    799   13.48     887    797.7     29.78
    800   13.49     900    800.3     30.00
    801   13.50     886    803.1     29.77
    802   13.51     880      806     29.66
    803   13.52     887    809.2     29.78
    804   13.53     891    812.6     29.85
    805   13.54     893    816.2     29.88
    806   13.55     896    820.1     29.93
    807   13.56     894    824.3     29.90
    808   13.57     905    828.7     30.08
    809   13.58     908    833.5     30.13
    810   13.59     918    838.6     30.30
    811   13.60     912    844.1     30.20
    812   13.61     924    850.1     30.40
    813   13.62     956    856.5     30.92
    814   13.63     940    863.3     30.66
    815   13.64     939    870.8     30.64
    816   13.65     958    878.8     30.95
    817   13.66     975    887.5     31.22
    818   13.67     982      897     31.34
    819   13.68     964    907.3     31.05
    820   13.69     992    918.5     31.50
    821   13.70    1005    930.8     31.70
    822   13.71    1025    944.4     32.02
    823   13.72    1017    959.6     31.89
    824   13.73    1039    976.5     32.23
    825   13.74    1054    995.9     32.47
    826   13.75    1084   1018.2     32.92
    827   13.76    1115   1044.4     33.39
    828   13.77    1144   1075.7     33.82
    829   13.78    1167   1113.8     34.16
    830   13.79    1215   1160.8     34.86
    831   13.80    1260   1219.1     35.50
    832   13.81    1329   1291.5     36.46
    833   13.82    1391   1381.2     37.30
    834   13.83    1454   1491.1     38.13
    835   13.84    1557   1623.9     39.46
    836   13.85    1680   1781.2     40.99
    837   13.86    1809   1963.6     42.53
    838   13.87    1957   2169.7     44.24
    839   13.88    2221   2395.9     47.13
    840   13.89    2482     2636     49.82
    841   13.90    2803   2880.5     52.94
    842   13.91    3198   3117.2     56.55
    843   13.92    3555   3330.9     59.62
    844   13.93    3859   3506.7     62.12
    845   13.94    4094   3635.1     63.98
    846   13.95    4177   3716.4     64.63
    847   13.96    4150   3763.4     64.42
    848   13.97    4154   3799.4     64.45
    849   13.98    4139   3855.2     64.34
    850   13.99    4213   3970.3     64.91
    851   14.00    4546     4203     67.42
    852   14.01    5077     4651     71.25
    853   14.02    5927     5484     76.99
    854   14.03    7408   6972.6     86.07
    855   14.04    9578   9546.2     97.87
    856   14.05   13094  13723.3    114.43
    857   14.06   18874  20088.9    137.38
    858   14.07   27690  29254.7    166.40
    859   14.08   41196  41952.6    202.97
    860   14.09   59307    58742    243.53
    861   14.10   74400  75981.9    272.76
    862   14.11   76198  78911.7    276.04
    863   14.12   63620  62565.1    252.23
    864   14.13   46228    44174    215.01
    865   14.14   30825  30294.7    175.57
    866   14.15   20346    20495    142.64
    867   14.16   13743  13888.6    117.23
    868   14.17    9736   9738.2     98.67
    869   14.18    7501   7342.3     86.61
    870   14.19    6157   6081.9     78.47
    871   14.20    5430   5490.9     73.69
    872   14.21    5115   5267.2     71.52
    873   14.22    5010     5232     70.78
    874   14.23    5093   5279.9     71.37
    875   14.24    5248   5341.1     72.44
    876   14.25    5361   5362.6     73.22
    877   14.26    5360     5305     73.21
    878   14.27    5206   5147.6     72.15
    879   14.28    4886   4891.6     69.90
    880   14.29    4440   4556.6     66.63
    881   14.30    3917   4171.2     62.59
    882   14.31    3392   3764.3     58.24
    883   14.32    2933   3360.1     54.16
    884   14.33    2556   2976.6     50.56
    885   14.34    2243     2626     47.36
    886   14.35    1986   2315.7     44.56
    887   14.36    1788   2048.7     42.28
    888   14.37    1625   1824.7     40.31
    889   14.38    1509   1640.9     38.85
    890   14.39    1397   1492.9     37.38
    891   14.40    1304   1375.4     36.11
    892   14.41    1215   1282.9     34.86
    893   14.42    1175   1210.3     34.28
    894   14.43    1129   1153.2     33.60
    895   14.44    1081   1107.9     32.88
    896   14.45    1055   1071.5     32.48
    897   14.46    1019   1041.7     31.92
    898   14.47     985     1017     31.38
    899   14.48     972    996.2     31.18
    900   14.49     936    978.6     30.59
    901   14.50     929    963.6     30.48
    902   14.51     911    950.9     30.18
    903   14.52     886    940.3     29.77
    904   14.53     892    931.6     29.87
    905   14.54     891    924.7     29.85
    906   14.55     879    919.9     29.65
    907   14.56     862      917     29.36
    908   14.57     860    916.4     29.33
    909   14.58     869    918.2     29.48
    910   14.59     883      923     29.72
    911   14.60     907    931.4     30.12
    912   14.61     915    944.5     30.25
    913   14.62     930    964.6     30.50
    914   14.63     981    995.7     31.32
    915   14.64    1044   1045.7     32.31
    916   14.65    1123   1129.1     33.51
    917   14.66    1249   1269.8     35.34
    918   14.67    1432   1502.7     37.84
    919   14.68    1737     1872     41.68
    920   14.69    2260   2426.4     47.54
    921   14.70    3037   3217.3     55.11
    922   14.71    4331   4305.2     65.81
    923   14.72    5994     5740     77.42
    924   14.73    7452   7253.5     86.32
    925   14.74    7676   7656.5     87.61
    926   14.75    6572   6344.5     81.07
    927   14.76    4863   4716.2     69.74
    928   14.77    3413   3449.5     58.42
    929   14.78    2404   2536.4     49.03
    930   14.79    1792   1901.1     42.33
    931   14.80    1387   1481.7     37.24
    932   14.81    1177   1219.9     34.31
    933   14.82     996   1062.7     31.56
    934   14.83     925    968.5     30.41
    935   14.84     865    909.7     29.41
    936   14.85     829    870.1     28.79
    937   14.86     784    841.3     28.00
    938   14.87     751    818.9     27.40
    939   14.88     739    800.9     27.18
    940   14.89     729      786     27.00
    941   14.90     723    773.4     26.89
    942   14.91     700    762.7     26.46
    943   14.92     702    753.5     26.50
    944   14.93     697    745.4     26.40
    945   14.94     694    738.3     26.34
    946   14.95     684      732     26.15
    947   14.96     668    726.4     25.85
    948   14.97     683    721.3     26.13
    949   14.98     674    716.7     25.96
    950   14.99     676    712.5     26.00
    951   15.00     672    708.7     25.92
    952   15.01     666    705.2     25.81
    953   15.02     659      702     25.67
    954   15.03     666      699     25.81
    955   15.04     664    698.4     25.77
    956   15.05     650    695.8     25.50
    957   15.06     650    693.4     25.50
    958   15.07     648    691.1     25.46
    959   15.08     656      689     25.61
    960   15.09     652      687     25.53
    961   15.10     643    685.1     25.36
    962   15.11     660    683.3     25.69
    963   15.12     645    681.6     25.40
    964   15.13     643    679.9     25.36
    965   15.14     638    678.4     25.26
    966   15.15     640    676.9     25.30
    967   15.16     633    675.5     25.16
    968   15.17     633    674.1     25.16
    969   15.18     632    672.8     25.14
    970   15.19     635    671.6     25.20
    971   15.20     636    670.4     25.22
    972   15.21     630    669.3     25.10
    973   15.22     627    668.2     25.04
    974   15.23     639    667.1     25.28
    975   15.24     632    666.1     25.14
    976   15.25     635    665.1     25.20
    977   15.26     644    664.1     25.38
    978   15.27     639    663.2     25.28
    979   15.28     630    662.3     25.10
    980   15.29     654    661.4     25.57
    981   15.30     636    660.6     25.22
    982   15.31     638    659.8     25.26
    983   15.32     627      659     25.04
    984   15.33     643    658.2     25.36
    985   15.34     644    657.5     25.38
    986   15.35     638    656.8     25.26
    987   15.36     635    656.1     25.20
    988   15.37     636    655.4     25.22
    989   15.38     644    654.7     25.38
    990   15.39     629    654.1     25.08
    991   15.40     625    653.5     25.00
    992   15.41     623    652.9     24.96
    993   15.42     622    652.3     24.94
    994   15.43     621    651.7     24.92
    995   15.44     627    651.1     25.04
    996   15.45     624    650.6     24.98
    997   15.46     609      650     24.68
    998   15.47     627    649.5     25.04
    999   15.48     614      649     24.78
   1000   15.49     620    648.5     24.90
   1001   15.50     608      648     24.66
   1002   15.51     605    647.6     24.60
   1003   15.52     608    647.1     24.66
   1004   15.53     620    646.6     24.90
   1005   15.54     610    646.2     24.70
   1006   15.55     616    645.8     24.82
   1007   15.56     627    645.3     25.04
   1008   15.57     625    644.9     25.00
   1009   15.58     609    644.5     24.68
   1010   15.59     616    644.1     24.82
   1011   15.60     639    643.8     25.28
   1012   15.61     610    643.4     24.70
   1013   15.62     608      643     24.66
   1014   15.63     616    642.7     24.82
   1015   15.64     610    642.3     24.70
   1016   15.65     606      642     24.62
   1017   15.66     614    641.7     24.78
   1018   15.67     614    641.3     24.78
   1019   15.68     609      641     24.68
   1020   15.69     616    640.7     24.82
   1021   15.70     621    640.4     24.92
   1022   15.71     619    640.1     24.88
   1023   15.72     615    639.8     24.80
   1024   15.73     611    639.6     24.72
   1025   15.74     609    639.3     24.68
   1026   15.75     597      639     24.43
   1027   15.76     607    638.8     24.64
   1028   15.77     615    638.5     24.80
   1029   15.78     603    638.3     24.56
   1030   15.79     603      638     24.56
   1031   15.80     612    637.8     24.74
   1032   15.81     612    637.6     24.74
   1033   15.82     614    637.4     24.78
   1034   15.83     619    637.2     24.88
   1035   15.84     611      637     24.72
   1036   15.85     615    636.8     24.80
   1037   15.86     611    636.6     24.72
   1038   15.87     619    635.4     24.88
   1039   15.88     599    635.2     24.47
   1040   15.89     603    635.1     24.56
   1041   15.90     603    634.9     24.56
   1042   15.91     601    634.8     24.52
   1043   15.92     600    634.6     24.49
   1044   15.93     600    634.5     24.49
   1045   15.94     600    634.4     24.49
   1046   15.95     612    634.3     24.74
   1047   15.96     600    635.2     24.49
   1048   15.97     603    635.1     24.56
   1049   15.98     610      635     24.70
   1050   15.99     599    634.9     24.47
   1051   16.00     612    634.8     24.74
   1052   16.01     613    634.8     24.76
   1053   16.02     606    634.7     24.62
   1054   16.03     606    634.7     24.62
   1055   16.04     606    634.6     24.62
   1056   16.05     612    634.6     24.74
   1057   16.06     601    634.6     24.52
   1058   16.07     615    634.6     24.80
   1059   16.08     602    634.6     24.54
   1060   16.09     613    634.6     24.76
   1061   16.10     619    634.6     24.88
   1062   16.11     620    628.8     24.90
   1063   16.12     611    628.9     24.72
   1064   16.13     604      629     24.58
   1065   16.14     618    629.1     24.86
   1066   16.15     609    629.2     24.68
   1067   16.16     612    629.3     24.74
   1068   16.17     612    629.5     24.74
   1069   16.18     616    629.6     24.82
   1070   16.19     613    629.8     24.76
   1071   16.20     615      630     24.80
   1072   16.21     619    630.2     24.88
   1073   16.22     619    630.4     24.88
   1074   16.23     618    629.6     24.86
   1075   16.24     609    629.9     24.68
   1076   16.25     619    630.1     24.88
   1077   16.26     617    630.4     24.84
   1078   16.27     605      629     24.60
   1079   16.28     614    629.3     24.78
   1080   16.29     613    629.7     24.76
   1081   16.30     597    630.1     24.43
   1082   16.31     618    630.4     24.86
   1083   16.32     610    630.9     24.70
   1084   16.33     610    631.3     24.70
   1085   16.34     609    631.7     24.68
   1086   16.35     620    632.2     24.90
   1087   16.36     599    632.7     24.47
   1088   16.37     606    633.2     24.62
   1089   16.38     605    633.8     24.60
   1090   16.39     613    634.4     24.76
   1091   16.40     609      635     24.68
   1092   16.41     635    635.6     25.20
   1093   16.42     619    636.3     24.88
   1094   16.43     625    637.1     25.00
   1095   16.44     609    637.8     24.68
   1096   16.45     612    638.7     24.74
   1097   16.46     622    639.5     24.94
   1098   16.47     620    640.4     24.90
   1099   16.48     623    641.4     24.96
   1100   16.49     617    642.4     24.84
   1101   16.50     621    643.5     24.92
   1102   16.51     621    644.7     24.92
   1103   16.52     629    645.9     25.08
   1104   16.53     632    647.2     25.14
   1105   16.54     625    648.6     25.00
   1106   16.55     640      650     25.30
   1107   16.56     643    651.6     25.36
   1108   16.57     636    653.3     25.22
   1109   16.58     640    658.5     25.30
   1110   16.59     644    660.4     25.38
   1111   16.60     639    662.5     25.28
   1112   16.61     638    664.8     25.26
   1113   16.62     636    667.2     25.22
   1114   16.63     635    669.8     25.20
   1115   16.64     638    672.6     25.26
   1116   16.65     641    675.6     25.32
   1117   16.66     649    678.9     25.48
   1118   16.67     656    682.4     25.61
   1119   16.68     651    686.2     25.51
   1120   16.69     663    690.4     25.75
   1121   16.70     666      695     25.81
   1122   16.71     659    699.9     25.67
   1123   16.72     686    705.4     26.19
   1124   16.73     695    711.4     26.36
   1125   16.74     686      718     26.19
   1126   16.75     699    725.3     26.44
   1127   16.76     706    733.4     26.57
   1128   16.77     716    742.4     26.76
   1129   16.78     732    752.5     27.06
   1130   16.79     758    763.9     27.53
   1131   16.80     762    776.7     27.60
   1132   16.81     780    791.2     27.93
   1133   16.82     808    807.7     28.43
   1134   16.83     820    826.7     28.64
   1135   16.84     841    848.6     29.00
   1136   16.85     882    874.1     29.70
   1137   16.86     911      904     30.18
   1138   16.87     966    939.4     31.08
   1139   16.88    1021    981.8     31.95
   1140   16.89    1086   1033.4     32.95
   1141   16.90    1168   1098.1     34.18
   1142   16.91    1304   1182.4     36.11
   1143   16.92    1442   1298.3     37.97
   1144   16.93    1676   1467.9     40.94
   1145   16.94    1965   1729.5     44.33
   1146   16.95    2339   2144.2     48.36
   1147   16.96    2919   2799.1     54.03
   1148   16.97    3809   3804.4     61.72
   1149   16.98    5084   5282.9     71.30
   1150   16.99    7088   7361.5     84.19
   1151   17.00   10209  10183.2    101.04
   1152   17.01   14254  13915.4    119.39
   1153   17.02   18869  18455.2    137.36
   1154   17.03   21845  22063.8    147.80
   1155   17.04   20671    21286    143.77
   1156   17.05   16706  16829.1    129.25
   1157   17.06   12291  12325.8    110.86
   1158   17.07    8523   8842.3     92.32
   1159   17.08    5886   6274.5     76.72
   1160   17.09    4204   4439.8     64.84
   1161   17.10    3126   3187.3     55.91
   1162   17.11    2394   2373.8     48.93
   1163   17.12    1958   1866.4     44.25
   1164   17.13    1641     1555     40.51
   1165   17.14    1421     1361     37.70
   1166   17.15    1269   1234.5     35.62
   1167   17.16    1158     1147     34.03
   1168   17.17    1079   1083.6     32.85
   1169   17.18    1033   1036.6     32.14
   1170   17.19     992     1002     31.50
   1171   17.20     959    978.1     30.97
   1172   17.21     941      964     30.68
   1173   17.22     924    959.6     30.40
   1174   17.23     932    965.1     30.53
   1175   17.24     941    981.1     30.68
   1176   17.25     960   1008.1     30.98
   1177   17.26     963   1046.6     31.03
   1178   17.27    1009   1096.6     31.76
   1179   17.28    1042   1157.6     32.28
   1180   17.29    1097   1228.3     33.12
   1181   17.30    1156   1306.3     34.00
   1182   17.31    1263   1388.2     35.54
   1183   17.32    1323   1469.1     36.37
   1184   17.33    1438   1542.7     37.92
   1185   17.34    1507   1601.4     38.82
   1186   17.35    1569   1637.7     39.61
   1187   17.36    1602   1645.8     40.02
   1188   17.37    1593   1623.7     39.91
   1189   17.38    1550   1574.2     39.37
   1190   17.39    1491   1503.1     38.61
   1191   17.40    1386   1418.2     37.23
   1192   17.41    1267   1326.7     35.59
   1193   17.42    1188   1234.5     34.47
   1194   17.43    1085   1146.1     32.94
   1195   17.44    1029   1064.6     32.08
   1196   17.45     981    991.9     31.32
   1197   17.46     911      929     30.18
   1198   17.47     877      876     29.61
   1199   17.48     856    832.3     29.26
   1200   17.49     812    797.1     28.50
   1201   17.50     782    769.1     27.96
   1202   17.51     762    747.3     27.60
   1203   17.52     757    730.3     27.51
   1204   17.53     735    717.1     27.11
   1205   17.54     716    706.7     26.76
   1206   17.55     718    698.6     26.80
   1207   17.56     703    692.1     26.51
   1208   17.57     704    686.7     26.53
   1209   17.58     696    682.2     26.38
   1210   17.59     677    678.4     26.02
   1211   17.60     678    675.1     26.04
   1212   17.61     670    672.2     25.88
   1213   17.62     672    669.6     25.92
   1214   17.63     670    667.3     25.88
   1215   17.64     675    665.2     25.98
   1216   17.65     670    663.3     25.88
   1217   17.66     661    661.6     25.71
   1218   17.67     675    660.1     25.98
   1219   17.68     659    658.7     25.67
   1220   17.69     658    657.5     25.65
   1221   17.70     653    656.4     25.55
   1222   17.71     654    655.4     25.57
   1223   17.72     654    654.5     25.57
   1224   17.73     654    653.7     25.57
   1225   17.74     655      653     25.59
   1226   17.75     677    652.4     26.02
   1227   17.76     658    651.8     25.65
   1228   17.77     657    651.4     25.63
   1229   17.78     656      651     25.61
   1230   17.79     657    651.6     25.63
   1231   17.80     648    651.4     25.46
   1232   17.81     669    651.2     25.87
   1233   17.82     656    651.1     25.61
   1234   17.83     645    651.1     25.40
   1235   17.84     654    651.1     25.57
   1236   17.85     647    651.2     25.44
   1237   17.86     657    651.3     25.63
   1238   17.87     660    651.5     25.69
   1239   17.88     660    651.8     25.69
   1240   17.89     664    652.1     25.77
   1241   17.90     668    652.5     25.85
   1242   17.91     666    652.9     25.81
   1243   17.92     661    653.4     25.71
   1244   17.93     662      654     25.73
   1245   17.94     672    654.6     25.92
   1246   17.95     668    655.3     25.85
   1247   17.96     671    656.1     25.90
   1248   17.97     672    656.9     25.92
   1249   17.98     678    657.8     26.04
   1250   17.99     678    658.8     26.04
   1251   18.00     678    659.9     26.04
   1252   18.01     683    661.1     26.13
   1253   18.02     693    662.4     26.32
   1254   18.03     686    663.7     26.19
   1255   18.04     682    665.2     26.12
   1256   18.05     683    666.8     26.13
   1257   18.06     681    668.4     26.10
   1258   18.07     692    670.3     26.31
   1259   18.08     686    672.2     26.19
   1260   18.09     699    674.3     26.44
   1261   18.10     710    676.6     26.65
   1262   18.11     717      679     26.78
   1263   18.12     721    681.6     26.85
   1264   18.13     709    684.4     26.63
   1265   18.14     725    687.4     26.93
   1266   18.15     730    690.6     27.02
   1267   18.16     744    694.1     27.28
   1268   18.17     759    697.9     27.55
   1269   18.18     747      702     27.33
   1270   18.19     750    706.4     27.39
   1271   18.20     753    711.1     27.44
   1272   18.21     758    716.3     27.53
   1273   18.22     760      722     27.57
   1274   18.23     772    728.1     27.78
   1275   18.24     771    734.9     27.77
   1276   18.25     788    742.2     28.07
   1277   18.26     803    750.3     28.34
   1278   18.27     796    759.2     28.21
   1279   18.28     830      769     28.81
   1280   18.29     848    779.8     29.12
   1281   18.30     854    791.9     29.22
   1282   18.31     855    805.3     29.24
   1283   18.32     894    820.3     29.90
   1284   18.33     905    837.2     30.08
   1285   18.34     923    856.2     30.38
   1286   18.35     952    877.8     30.85
   1287   18.36     991    902.4     31.48
   1288   18.37    1023    930.6     31.98
   1289   18.38    1073    963.1     32.76
   1290   18.39    1115   1000.9     33.39
   1291   18.40    1156   1045.2     34.00
   1292   18.41    1241   1098.7     35.23
   1293   18.42    1307   1161.6     36.15
   1294   18.43    1420   1238.5     37.68
   1295   18.44    1544   1335.3     39.29
   1296   18.45    1699   1462.6     41.22
   1297   18.46    1900   1639.1     43.59
   1298   18.47    2212   1898.1     47.03
   1299   18.48    2591   2294.4     50.90
   1300   18.49    3166   2911.7     56.27
   1301   18.50    4032   3864.5     63.50
   1302   18.51    5128   5292.7     71.61
   1303   18.52    6907   7348.7     83.11
   1304   18.53    9749  10189.7     98.74
   1305   18.54   13825  13993.5    117.58
   1306   18.55   19540  18967.8    139.79
   1307   18.56   26386  25038.8    162.44
   1308   18.57   30943  30331.5    175.91
   1309   18.58   30598  30482.5    174.92
   1310   18.59   25695  25076.7    160.30
   1311   18.60   19171  18781.8    138.46
   1312   18.61   13366  13680.5    115.61
   1313   18.62    9275   9830.2     96.31
   1314   18.63    6563   6996.5     81.01
   1315   18.64    4810   4984.2     69.35
   1316   18.65    3656   3618.3     60.46
   1317   18.66    2889   2729.6     53.75
   1318   18.67    2360     2167     48.58
   1319   18.68    2005   1811.8     44.78
   1320   18.69    1732   1581.3     41.62
   1321   18.70    1531   1423.8     39.13
   1322   18.71    1394   1309.6     37.34
   1323   18.72    1265   1222.2     35.57
   1324   18.73    1203   1152.9     34.68
   1325   18.74    1138   1096.6     33.73
   1326   18.75    1092   1050.2     33.05
   1327   18.76    1052   1011.6     32.43
   1328   18.77    1033    978.5     32.14
   1329   18.78     987    951.6     31.42
   1330   18.79     979    929.2     31.29
   1331   18.80     968    910.5     31.11
   1332   18.81     950    895.2     30.82
   1333   18.82     925    882.8     30.41
   1334   18.83     934    873.2     30.56
   1335   18.84     915      866     30.25
   1336   18.85     914    861.3     30.23
   1337   18.86     935    858.9     30.58
   1338   18.87     928    859.1     30.46
   1339   18.88     926    861.8     30.43
   1340   18.89     957    867.5     30.94
   1341   18.90     966    876.5     31.08
   1342   18.91     981    894.6     31.32
   1343   18.92    1021    912.9     31.95
   1344   18.93    1052    938.5     32.43
   1345   18.94    1103    975.1     33.21
   1346   18.95    1187   1029.5     34.45
   1347   18.96    1288   1113.2     35.89
   1348   18.97    1402   1244.3     37.44
   1349   18.98    1610   1449.7     40.12
   1350   18.99    1873   1763.8     43.28
   1351   19.00    2246   2227.1     47.39
   1352   19.01    2860   2881.9     53.48
   1353   19.02    3689   3772.7     60.74
   1354   19.03    4960   4952.2     70.43
   1355   19.04    6725   6470.3     82.01
   1356   19.05    8440     8217     91.87
   1357   19.06    9356   9410.6     96.73
   1358   19.07    8892   8911.9     94.30
   1359   19.08    7300   7195.8     85.44
   1360   19.09    5550   5483.8     74.50
   1361   19.10    4108   4132.9     64.09
   1362   19.11    3076     3115     55.46
   1363   19.12    2354   2367.3     48.52
   1364   19.13    1909   1838.5     43.69
   1365   19.14    1595   1480.6     39.94
   1366   19.15    1386   1247.9     37.23
   1367   19.16    1264   1100.2     35.55
   1368   19.17    1137   1006.7     33.72
   1369   19.18    1067    945.8     32.66
   1370   19.19    1026    904.4     32.03
   1371   19.20     992    874.8     31.50
   1372   19.21     979    852.9     31.29
   1373   19.22     940    836.5     30.66
   1374   19.23     918    824.5     30.30
   1375   19.24     899    816.3     29.98
   1376   19.25     917    811.7     30.28
   1377   19.26     906    810.9     30.10
   1378   19.27     903    814.2     30.05
   1379   19.28     925    822.3     30.41
   1380   19.29     915    836.2     30.25
   1381   19.30     949    856.9     30.81
   1382   19.31     960      886     30.98
   1383   19.32     989    924.8     31.45
   1384   19.33    1012    974.7     31.81
   1385   19.34    1059   1036.8     32.54
   1386   19.35    1128   1111.7     33.59
   1387   19.36    1180   1199.5     34.35
   1388   19.37    1271     1299     35.65
   1389   19.38    1362     1408     36.91
   1390   19.39    1470   1523.1     38.34
   1391   19.40    1606   1638.9     40.07
   1392   19.41    1726   1748.4     41.55
   1393   19.42    1840   1842.8     42.90
   1394   19.43    1962   1912.6     44.29
   1395   19.44    1996   1949.2     44.68
   1396   19.45    2001   1947.2     44.73
   1397   19.46    1958   1906.9     44.25
   1398   19.47    1875   1833.9     43.30
   1399   19.48    1790   1736.9     42.31
   1400   19.49    1644   1625.5     40.55
   1401   19.50    1538   1508.4     39.22
   1402   19.51    1399   1392.4     37.40
   1403   19.52    1291   1282.7     35.93
   1404   19.53    1201   1182.7     34.66
   1405   19.54    1115   1094.7     33.39
   1406   19.55    1063   1019.7     32.60
   1407   19.56    1027    957.7     32.05
   1408   19.57     989    908.2     31.45
   1409   19.58     967    870.3     31.10
   1410   19.59     937    842.8     30.61
   1411   19.60     915    824.6     30.25
   1412   19.61     904    814.9     30.07
   1413   19.62     912      813     30.20
   1414   19.63     918    818.5     30.30
   1415   19.64     927    831.1     30.45
   1416   19.65     935    850.9     30.58
   1417   19.66     925    877.8     30.41
   1418   19.67     970    911.8     31.14
   1419   19.68     991    952.4     31.48
   1420   19.69    1026      999     32.03
   1421   19.70    1053   1050.3     32.45
   1422   19.71    1119   1104.3     33.45
   1423   19.72    1161   1158.5     34.07
   1424   19.73    1202   1209.4     34.67
   1425   19.74    1231   1252.8     35.09
   1426   19.75    1294   1284.3     35.97
   1427   19.76    1309     1300     36.18
   1428   19.77    1299   1298.2     36.04
   1429   19.78    1290   1279.5     35.92
   1430   19.79    1281   1247.2     35.79
   1431   19.80    1249   1205.8     35.34
   1432   19.81    1188   1160.3     34.47
   1433   19.82    1150   1115.2     33.91
   1434   19.83    1118   1074.4     33.44
   1435   19.84    1082   1041.2     32.89
   1436   19.85    1067   1018.3     32.66
   1437   19.86    1043   1007.9     32.30
   1438   19.87    1044   1011.6     32.31
   1439   19.88    1036   1030.7     32.19
   1440   19.89    1056   1065.8     32.50
   1441   19.90    1118   1116.9     33.44
   1442   19.91    1155   1183.2     33.99
   1443   19.92    1220   1263.1     34.93
   1444   19.93    1307   1353.9     36.15
   1445   19.94    1407   1451.8     37.51
   1446   19.95    1507   1551.5     38.82
   1447   19.96    1640   1646.4     40.50
   1448   19.97    1775   1728.3     42.13
   1449   19.98    1879   1788.4     43.35
   1450   19.99    1939   1819.1     44.03
   1451   20.00    1971   1815.5     44.40
   1452   20.01    1934   1777.9     43.98
   1453   20.02    1847     1711     42.98
   1454   20.03    1751   1622.8     41.84
   1455   20.04    1610   1521.6     40.12
   1456   20.05    1455   1415.1     38.14
   1457   20.06    1338   1309.5     36.58
   1458   20.07    1224   1209.2     34.99
   1459   20.08    1123   1117.4     33.51
   1460   20.09    1035     1036     32.17
   1461   20.10     970    965.8     31.14
   1462   20.11     923    906.7     30.38
   1463   20.12     904    858.3     30.07
   1464   20.13     862    819.4     29.36
   1465   20.14     846    788.6     29.09
   1466   20.15     825    764.7     28.72
   1467   20.16     811    746.4     28.48
   1468   20.17     774    732.3     27.82
   1469   20.18     782    721.6     27.96
   1470   20.19     766    715.6     27.68
   1471   20.20     762    709.3     27.60
   1472   20.21     766    704.4     27.68
   1473   20.22     745    700.6     27.29
   1474   20.23     738    697.6     27.17
   1475   20.24     730    695.2     27.02
   1476   20.25     717    693.3     26.78
   1477   20.26     711    691.8     26.66
   1478   20.27     711    690.7     26.66
   1479   20.28     714    689.9     26.72
   1480   20.29     711    689.4     26.66
   1481   20.30     707    689.2     26.59
   1482   20.31     707    689.2     26.59
   1483   20.32     700    689.5     26.46
   1484   20.33     714      690     26.72
   1485   20.34     707    690.7     26.59
   1486   20.35     704    691.6     26.53
   1487   20.36     705    692.8     26.55
   1488   20.37     718    694.2     26.80
   1489   20.38     718    695.8     26.80
   1490   20.39     725    697.6     26.93
   1491   20.40     706    699.7     26.57
   1492   20.41     717    702.1     26.78
   1493   20.42     714    704.6     26.72
   1494   20.43     710    707.5     26.65
   1495   20.44     719    710.7     26.81
   1496   20.45     713    714.1     26.70
   1497   20.46     708    717.9     26.61
   1498   20.47     726      722     26.94
   1499   20.48     728    726.5     26.98
   1500   20.49     739    731.4     27.18
   1501   20.50     731    736.8     27.04
   1502   20.51     754    743.6     27.46
   1503   20.52     743      750     27.26
   1504   20.53     755      757     27.48
   1505   20.54     756    764.6     27.50
   1506   20.55     786    772.9     28.04
   1507   20.56     778      782     27.89
   1508   20.57     786    792.1     28.04
   1509   20.58     804      800     28.35
   1510   20.59     817    812.1     28.58
   1511   20.60     837    825.6     28.93
   1512   20.61     840    840.4     28.98
   1513   20.62     874    856.9     29.56
   1514   20.63     899    875.3     29.98
   1515   20.64     911    895.8     30.18
   1516   20.65     950    918.8     30.82
   1517   20.66     966    944.8     31.08
   1518   20.67    1018    974.2     31.91
   1519   20.68    1052   1007.5     32.43
   1520   20.69    1119   1045.7     33.45
   1521   20.70    1153   1089.6     33.96
   1522   20.71    1204   1140.4     34.70
   1523   20.72    1282   1199.7     35.81
   1524   20.73    1394   1269.6     37.34
   1525   20.74    1503   1353.1     38.77
   1526   20.75    1657   1454.8     40.71
   1527   20.76    1832   1582.5     42.80
   1528   20.77    2068   1749.3     45.48
   1529   20.78    2345   1979.2     48.43
   1530   20.79    2687     2309     51.84
   1531   20.80    3199   2801.3     56.56
   1532   20.81    3926   3548.1     62.66
   1533   20.82    4869   4672.9     69.78
   1534   20.83    6227   6326.5     78.91
   1535   20.84    8247   8674.4     90.81
   1536   20.85   11021  11887.2    104.98
   1537   20.86   15138  16148.4    123.04
   1538   20.87   21400  21681.3    146.29
   1539   20.88   29423  28647.8    171.53
   1540   20.89   37573  36300.8    193.84
   1541   20.90   41535  41031.4    203.80
   1542   20.91   38624    38480    196.53
   1543   20.92   31163  30978.2    176.53
   1544   20.93   23295  23418.9    152.63
   1545   20.94   16484  17336.6    128.39
   1546   20.95   11623  12668.5    107.81
   1547   20.96    8354     9163     91.40
   1548   20.97    6210   6610.4     78.80
   1549   20.98    4694   4822.9     68.51
   1550   20.99    3718   3616.6     60.98
   1551   21.00    2981   2825.5     54.60
   1552   21.01    2479   2311.9     49.79
   1553   21.02    2112   1971.7     45.96
   1554   21.03    1845   1738.1     42.95
   1555   21.04    1630   1569.2     40.37
   1556   21.05    1477   1440.4     38.43
   1557   21.06    1348   1338.1     36.72
   1558   21.07    1238   1254.4     35.19
   1559   21.08    1156   1184.5     34.00
   1560   21.09    1091   1125.4     33.03
   1561   21.10    1048   1074.8     32.37
   1562   21.11    1001   1030.2     31.64
   1563   21.12     946    992.4     30.76
   1564   21.13     902    959.4     30.03
   1565   21.14     892    930.5     29.87
   1566   21.15     853    904.9     29.21
   1567   21.16     828    882.2     28.77
   1568   21.17     811      862     28.48
   1569   21.18     796      844     28.21
   1570   21.19     768    827.8     27.71
   1571   21.20     777    813.2     27.87
   1572   21.21     754      800     27.46
   1573   21.22     740      788     27.20
   1574   21.23     735    777.2     27.11
   1575   21.24     717    767.3     26.78
   1576   21.25     713    758.3     26.70
   1577   21.26     710    750.1     26.65
   1578   21.27     705    742.5     26.55
   1579   21.28     693    735.6     26.32
   1580   21.29     699    729.2     26.44
   1581   21.30     688    723.4     26.23
   1582   21.31     677      718     26.02
   1583   21.32     689      713     26.25
   1584   21.33     680    708.4     26.08
   1585   21.34     686    704.1     26.19
   1586   21.35     692    700.2     26.31
   1587   21.36     670    696.6     25.88
   1588   21.37     663    693.2     25.75
   1589   21.38     678    690.1     26.04
   1590   21.39     663    687.2     25.75
   1591   21.40     664    684.6     25.77
   1592   21.41     688    682.2     26.23
   1593   21.42     652    679.9     25.53
   1594   21.43     656    677.8     25.61
   1595   21.44     671    675.9     25.90
   1596   21.45     672    674.2     25.92
   1597   21.46     650    672.6     25.50
   1598   21.47     658    671.2     25.65
   1599   21.48     635    669.9     25.20
   1600   21.49     656    668.7     25.61
   1601   21.50     659    667.7     25.67
   1602   21.51     654    666.8     25.57
   1603   21.52     656      666     25.61
   1604   21.53     647    665.4     25.44
   1605   21.54     652    664.9     25.53
   1606   21.55     649    664.4     25.48
   1607   21.56     659    664.1     25.67
   1608   21.57     647      664     25.44
   1609   21.58     642    663.9     25.34
   1610   21.59     646      663     25.42
   1611   21.60     649    663.1     25.48
   1612   21.61     653    663.5     25.55
   1613   21.62     650    663.9     25.50
   1614   21.63     656    664.4     25.61
   1615   21.64     649    665.1     25.48
   1616   21.65     658    665.9     25.65
   1617   21.66     658    666.9     25.65
   1618   21.67     661      668     25.71
   1619   21.68     659    669.3     25.67
   1620   21.69     669    670.7     25.87
   1621   21.70     674    672.3     25.96
   1622   21.71     679    674.1     26.06
   1623   21.72     684    676.1     26.15
   1624   21.73     673    678.2     25.94
   1625   21.74     679    680.7     26.06
   1626   21.75     696    683.3     26.38
   1627   21.76     686    686.2     26.19
   1628   21.77     702    689.4     26.50
   1629   21.78     695    692.9     26.36
   1630   21.79     700    696.8     26.46
   1631   21.80     712      701     26.68
   1632   21.81     706    705.6     26.57
   1633   21.82     714    710.7     26.72
   1634   21.83     717    716.3     26.78
   1635   21.84     728    722.5     26.98
   1636   21.85     727    729.2     26.96
   1637   21.86     737    736.7     27.15
   1638   21.87     759    745.1     27.55
   1639   21.88     773    754.3     27.80
   1640   21.89     795    764.7     28.20
   1641   21.90     803    776.4     28.34
   1642   21.91     829    789.7     28.79
   1643   21.92     850    804.9     29.15
   1644   21.93     876    822.6     29.60
   1645   21.94     892    843.1     29.87
   1646   21.95     936    867.4     30.59
   1647   21.96     964    896.3     31.05
   1648   21.97     991    930.9     31.48
   1649   21.98    1049    972.5     32.39
   1650   21.99    1101   1022.6     33.18
   1651   22.00    1176   1082.8     34.29
   1652   22.01    1255   1154.9     35.43
   1653   22.02    1349   1241.2     36.73
   1654   22.03    1463   1344.2     38.25
   1655   22.04    1603   1467.6     40.04
   1656   22.05    1778   1617.2     42.17
   1657   22.06    1982   1802.9     44.52
   1658   22.07    2293   2040.8     47.89
   1659   22.08    2586     2357     50.85
   1660   22.09    3027   2789.8     55.02
   1661   22.10    3593   3391.3     59.94
   1662   22.11    4308   4225.9     65.64
   1663   22.12    5213   5365.8     72.20
   1664   22.13    6595   6887.7     81.21
   1665   22.14    8491   8876.5     92.15
   1666   22.15   11225  11435.5    105.95
   1667   22.16   14930  14670.6    122.19
   1668   22.17   18842  18442.7    137.27
   1669   22.18   21734  21561.5    147.42
   1670   22.19   21856  21705.9    147.84
   1671   22.20   18709  18577.4    136.78
   1672   22.21   14610  14598.3    120.87
   1673   22.22   10873  11175.6    104.27
   1674   22.23    8001   8495.4     89.45
   1675   22.24    5997   6450.9     77.44
   1676   22.25    4689   4932.8     68.48
   1677   22.26    3754   3849.1     61.27
   1678   22.27    3134   3111.1     55.98
   1679   22.28    2739   2632.3     52.34
   1680   22.29    2439   2334.5     49.39
   1681   22.30    2229   2153.1     47.21
   1682   22.31    2128   2039.2     46.13
   1683   22.32    2003   1958.1     44.75
   1684   22.33    1917   1887.4     43.78
   1685   22.34    1822     1814     42.68
   1686   22.35    1744   1732.5     41.76
   1687   22.36    1644   1643.8     40.55
   1688   22.37    1542   1548.4     39.27
   1689   22.38    1409   1451.1     37.54
   1690   22.39    1321   1355.3     36.35
   1691   22.40    1228   1263.9     35.04
   1692   22.41    1150     1179     33.91
   1693   22.42    1069     1102     32.70
   1694   22.43    1003   1033.6     31.67
   1695   22.44     976      974     31.24
   1696   22.45     920    922.9     30.33
   1697   22.46     883    879.8     29.72
   1698   22.47     851    843.8     29.17
   1699   22.48     809    813.9     28.44
   1700   22.49     788    789.4     28.07
   1701   22.50     782    769.1     27.96
   1702   22.51     745    752.3     27.29
   1703   22.52     744    738.3     27.28
   1704   22.53     708    726.4     26.61
   1705   22.54     693    716.3     26.32
   1706   22.55     693    707.4     26.32
   1707   22.56     685    699.7     26.17
   1708   22.57     685    692.7     26.17
   1709   22.58     679    686.5     26.06
   1710   22.59     676    680.8     26.00
   1711   22.60     654    675.6     25.57
   1712   22.61     660    670.9     25.69
   1713   22.62     658    666.5     25.65
   1714   22.63     647    662.4     25.44
   1715   22.64     644    658.6     25.38
   1716   22.65     629    655.1     25.08
   1717   22.66     630    651.8     25.10
   1718   22.67     629    648.7     25.08
   1719   22.68     621    645.8     24.92
   1720   22.69     615    643.1     24.80
   1721   22.70     615    640.6     24.80
   1722   22.71     615    638.2     24.80
   1723   22.72     605      636     24.60
   1724   22.73     620    633.9     24.90
   1725   22.74     612    631.9     24.74
   1726   22.75     595      630     24.39
   1727   22.76     614    628.2     24.78
   1728   22.77     603    626.5     24.56
   1729   22.78     608    624.9     24.66
   1730   22.79     604    623.4     24.58
   1731   22.80     589    621.9     24.27
   1732   22.81     599    620.5     24.47
   1733   22.82     607    619.2     24.64
   1734   22.83     586      618     24.21
   1735   22.84     587    616.8     24.23
   1736   22.85     597    615.7     24.43
   1737   22.86     596    614.6     24.41
   1738   22.87     596    613.6     24.41
   1739   22.88     587    612.6     24.23
   1740   22.89     592    611.7     24.33
   1741   22.90     601    610.8     24.52
   1742   22.91     592    605.2     24.33
   1743   22.92     594    604.4     24.37
   1744   22.93     596    603.7     24.41
   1745   22.94     587      603     24.23
   1746   22.95     588    602.3     24.25
   1747   22.96     587    601.7     24.23
   1748   22.97     589    601.1     24.27
   1749   22.98     584    600.5     24.17
   1750   22.99     583    599.9     24.15
   1751   23.00     596    599.4     24.41
   1752   23.01     568    598.9     23.83
   1753   23.02     575    598.4     23.98
   1754   23.03     578    597.9     24.04
   1755   23.04     585    597.5     24.19
   1756   23.05     585    597.1     24.19
   1757   23.06     585    596.7     24.19
   1758   23.07     579    596.3     24.06
   1759   23.08     582      596     24.12
   1760   23.09     583    595.6     24.15
   1761   23.10     594    595.3     24.37
   1762   23.11     581      595     24.10
   1763   23.12     588    594.7     24.25
   1764   23.13     582    594.5     24.12
   1765   23.14     583    594.2     24.15
   1766   23.15     583      594     24.15
   1767   23.16     568    593.8     23.83
   1768   23.17     571    593.6     23.90
   1769   23.18     577    593.4     24.02
   1770   23.19     584    593.2     24.17
   1771   23.20     583    593.1     24.15
   1772   23.21     602    592.9     24.54
   1773   23.22     586    592.8     24.21
   1774   23.23     588    592.7     24.25
   1775   23.24     575    592.6     23.98
   1776   23.25     572    592.6     23.92
   1777   23.26     571    592.5     23.90
   1778   23.27     580    592.5     24.08
   1779   23.28     570    592.5     23.87
   1780   23.29     584    592.5     24.17
   1781   23.30     561    592.5     23.69
   1782   23.31     579    595.4     24.06
   1783   23.32     576    595.5     24.00
   1784   23.33     576    595.6     24.00
   1785   23.34     578    595.8     24.04
   1786   23.35     583    595.9     24.15
   1787   23.36     590    596.1     24.29
   1788   23.37     585    596.3     24.19
   1789   23.38     599    596.5     24.47
   1790   23.39     599    596.8     24.47
   1791   23.40     588      597     24.25
   1792   23.41     586    597.3     24.21
   1793   23.42     596    597.6     24.41
   1794   23.43     587      598     24.23
   1795   23.44     584    598.4     24.17
   1796   23.45     597    598.8     24.43
   1797   23.46     598    599.2     24.45
   1798   23.47     601    598.7     24.52
   1799   23.48     600    599.3     24.49
   1800   23.49     585    599.9     24.19
   1801   23.50     592    600.5     24.33
   1802   23.51     602    601.1     24.54
   1803   23.52     596    601.8     24.41
   1804   23.53     577    602.6     24.02
   1805   23.54     602    603.4     24.54
   1806   23.55     599    604.3     24.47
   1807   23.56     593    605.2     24.35
   1808   23.57     604    606.2     24.58
   1809   23.58     599    607.3     24.47
   1810   23.59     584    608.5     24.17
   1811   23.60     595    609.7     24.39
   1812   23.61     595      611     24.39
   1813   23.62     596    612.5     24.41
   1814   23.63     620      614     24.90
   1815   23.64     616    615.6     24.82
   1816   23.65     624    617.4     24.98
   1817   23.66     638    618.3     25.26
   1818   23.67     626    620.4     25.02
   1819   23.68     627    622.7     25.04
   1820   23.69     627    625.1     25.04
   1821   23.70     629    627.8     25.08
   1822   23.71     635    630.7     25.20
   1823   23.72     649    633.8     25.48
   1824   23.73     655    637.3     25.59
   1825   23.74     650    641.1     25.50
   1826   23.75     663    645.3     25.75
   1827   23.76     668      650     25.85
   1828   23.77     674    655.3     25.96
   1829   23.78     689    661.5     26.25
   1830   23.79     695    668.6     26.36
   1831   23.80     711    677.1     26.66
   1832   23.81     734    687.4     27.09
   1833   23.82     739    698.9     27.18
   1834   23.83     751    714.5     27.40
   1835   23.84     771      734     27.77
   1836   23.85     781    758.4     27.95
   1837   23.86     808    788.8     28.43
   1838   23.87     843    826.5     29.03
   1839   23.88     873    872.7     29.55
   1840   23.89     915    928.6     30.25
   1841   23.90     969    994.9     31.13
   1842   23.91    1020   1072.1     31.94
   1843   23.92    1088   1159.9     32.98
   1844   23.93    1198   1257.5     34.61
   1845   23.94    1298     1363     36.03
   1846   23.95    1411   1473.4     37.56
   1847   23.96    1497   1584.7     38.69
   1848   23.97    1613   1691.3     40.16
   1849   23.98    1730   1786.7     41.59
   1850   23.99    1836   1863.8     42.85
   1851   24.00    1898   1916.4     43.57
   1852   24.01    1955   1941.1     44.22
   1853   24.02    1987     1939     44.58
   1854   24.03    2003   1915.9     44.75
   1855   24.04    1986   1881.7     44.56
   1856   24.05    1991   1849.4     44.62
   1857   24.06    1978     1835     44.47
   1858   24.07    1986   1857.7     44.56
   1859   24.08    2054   1941.7     45.32
   1860   24.09    2212     2116     47.03
   1861   24.10    2419   2414.4     49.18
   1862   24.11    2810   2873.1     53.01
   1863   24.12    3353   3529.2     57.91
   1864   24.13    4163   4419.6     64.52
   1865   24.14    5349   5587.4     73.14
   1866   24.15    6955   7081.9     83.40
   1867   24.16    9024   8912.7     94.99
   1868   24.17   11273  10814.7    106.17
   1869   24.18   12202  11885.1    110.46
   1870   24.19   11473  11213.1    107.11
   1871   24.20    9561     9341     97.78
   1872   24.21    7456   7370.4     86.35
   1873   24.22    5501   5723.4     74.17
   1874   24.23    4188   4421.3     64.71
   1875   24.24    3212   3410.3     56.67
   1876   24.25    2534   2642.1     50.34
   1877   24.26    2050   2075.5     45.28
   1878   24.27    1697   1671.2     41.19
   1879   24.28    1454   1391.8     38.13
   1880   24.29    1295   1201.2     35.99
   1881   24.30    1153     1072     33.96
   1882   24.31    1051      983     32.42
   1883   24.32     977    919.8     31.26
   1884   24.33     914    872.9     30.23
   1885   24.34     863    836.6     29.38
   1886   24.35     838    807.3     28.95
   1887   24.36     791    783.1     28.12
   1888   24.37     765    762.7     27.66
   1889   24.38     745    745.2     27.29
   1890   24.39     730    730.1     27.02
   1891   24.40     687      717     26.21
   1892   24.41     685    705.6     26.17
   1893   24.42     675    695.5     25.98
   1894   24.43     680    686.5     26.08
   1895   24.44     662    678.6     25.73
   1896   24.45     656    671.6     25.61
   1897   24.46     647    665.3     25.44
   1898   24.47     651    659.7     25.51
   1899   24.48     631    654.6     25.12
   1900   24.49     608      650     24.66
   1901   24.50     624    645.9     24.98
   1902   24.51     621    642.2     24.92
   1903   24.52     619    638.9     24.88
   1904   24.53     615    635.8     24.80
   1905   24.54     596    633.1     24.41
   1906   24.55     600    630.6     24.49
   1907   24.56     599    628.4     24.47
   1908   24.57     600    626.3     24.49
   1909   24.58     597    624.5     24.43
   1910   24.59     604    622.9     24.58
   1911   24.60     606    621.4     24.62
   1912   24.61     595    620.1     24.39
   1913   24.62     594      619     24.37
   1914   24.63     602      618     24.54
   1915   24.64     595    617.1     24.39
   1916   24.65     590    616.4     24.29
   1917   24.66     598    615.8     24.45
   1918   24.67     592    615.3     24.33
   1919   24.68     582    614.9     24.12
   1920   24.69     579    614.6     24.06
   1921   24.70     579    614.5     24.06
   1922   24.71     593    614.4     24.35
   1923   24.72     584    614.5     24.17
   1924   24.73     590    614.7     24.29
   1925   24.74     582      615     24.12
   1926   24.75     592    615.4     24.33
   1927   24.76     582    615.9     24.12
   1928   24.77     592    616.5     24.33
   1929   24.78     591    617.3     24.31
   1930   24.79     597    618.1     24.43
   1931   24.80     594    619.1     24.37
   1932   24.81     600    620.3     24.49
   1933   24.82     601    621.5     24.52
   1934   24.83     605      623     24.60
   1935   24.84     601    624.5     24.52
   1936   24.85     604    626.3     24.58
   1937   24.86     613    628.2     24.76
   1938   24.87     596    630.4     24.41
   1939   24.88     600    632.7     24.49
   1940   24.89     609    635.2     24.68
   1941   24.90     619      638     24.88
   1942   24.91     615    641.1     24.80
   1943   24.92     619    644.5     24.88
   1944   24.93     615    648.1     24.80
   1945   24.94     627    652.2     25.04
   1946   24.95     630    656.6     25.10
   1947   24.96     648    661.4     25.46
   1948   24.97     641    666.7     25.32
   1949   24.98     662    673.6     25.73
   1950   24.99     677    680.1     26.02
   1951   25.00     668    687.3     25.85
   1952   25.01     685    695.2     26.17
   1953   25.02     695      704     26.36
   1954   25.03     708    713.8     26.61
   1955   25.04     727    724.7     26.96
   1956   25.05     733    736.9     27.07
   1957   25.06     761    750.7     27.59
   1958   25.07     786    766.2     28.04
   1959   25.08     808    783.8     28.43
   1960   25.09     839    806.2     28.97
   1961   25.10     875    829.2     29.58
   1962   25.11     912    855.8     30.20
   1963   25.12     951    886.8     30.84
   1964   25.13    1009    923.2     31.76
   1965   25.14    1047    967.1     32.36
   1966   25.15    1141     1021     33.78
   1967   25.16    1253   1089.7     35.40
   1968   25.17    1366   1180.6     36.96
   1969   25.18    1526   1305.9     39.06
   1970   25.19    1728     1484     41.57
   1971   25.20    1972     1742     44.41
   1972   25.21    2307   2116.1     48.03
   1973   25.22    2753   2651.8     52.47
   1974   25.23    3340   3401.3     57.79
   1975   25.24    4122   4419.7     64.20
   1976   25.25    5278   5763.2     72.65
   1977   25.26    6854   7492.5     82.79
   1978   25.27    9072   9680.7     95.25
   1979   25.28   12117  12396.7    110.08
   1980   25.29   15568  15538.4    124.77
   1981   25.30   18448  18322.4    135.82
   1982   25.31   19324  19089.5    139.01
   1983   25.32   17451  17125.6    132.10
   1984   25.33   14134    13932    118.89
   1985   25.34   10851  10905.5    104.17
   1986   25.35    8093   8424.8     89.96
   1987   25.36    6059   6461.4     77.84
   1988   25.37    4685   4932.6     68.45
   1989   25.38    3627   3769.1     60.22
   1990   25.39    2911     2909     53.95
   1991   25.40    2396   2293.3     48.95
   1992   25.41    2018   1864.7     44.92
   1993   25.42    1723     1572     41.51
   1994   25.43    1544   1373.1     39.29
   1995   25.44    1345   1236.7     36.67
   1996   25.45    1219   1141.6     34.91
   1997   25.46    1149   1071.8     33.90
   1998   25.47    1069   1019.3     32.70
   1999   25.48    1020    978.8     31.94
   2000   25.49     972    947.5     31.18
   2001   25.50     955    923.4     30.90
   2002   25.51     920    905.8     30.33
   2003   25.52     906    894.5     30.10
   2004   25.53     895    890.1     29.92
   2005   25.54     902    894.2     30.03
   2006   25.55     924    909.3     30.40
   2007   25.56     973    939.9     31.19
   2008   25.57     998    992.2     31.59
   2009   25.58    1064   1074.2     32.62
   2010   25.59    1156   1195.8     34.00
   2011   25.60    1276   1367.5     35.72
   2012   25.61    1477   1600.5     38.43
   2013   25.62    1737     1906     41.68
   2014   25.63    2120   2297.2     46.04
   2015   25.64    2681   2789.8     51.78
   2016   25.65    3329   3387.6     57.70
   2017   25.66    4058   4016.8     63.70
   2018   25.67    4520   4419.2     67.23
   2019   25.68    4370   4287.8     66.11
   2020   25.69    3751   3717.3     61.25
   2021   25.70    3085   3060.3     55.54
   2022   25.71    2411   2491.2     49.10
   2023   25.72    1887   2033.2     43.44
   2024   25.73    1554     1672     39.42
   2025   25.74    1302     1393     36.08
   2026   25.75    1106   1181.2     33.26
   2027   25.76     987   1025.6     31.42
   2028   25.77     902    914.5     30.03
   2029   25.78     822    836.9     28.67
   2030   25.79     780    783.2     27.93
   2031   25.80     743    745.8     27.26
   2032   25.81     710    719.1     26.65
   2033   25.82     685    699.3     26.17
   2034   25.83     660    684.1     25.69
   2035   25.84     642    671.9     25.34
   2036   25.85     630    661.8     25.10
   2037   25.86     602    653.2     24.54
   2038   25.87     604    645.8     24.58
   2039   25.88     591    639.4     24.31
   2040   25.89     583    633.8     24.15
   2041   25.90     579    628.8     24.06
   2042   25.91     587    624.4     24.23
   2043   25.92     579    620.5     24.06
   2044   25.93     571      617     23.90
   2045   25.94     572    613.8     23.92
   2046   25.95     582      611     24.12
   2047   25.96     560    608.5     23.66
   2048   25.97     568    606.2     23.83
   2049   25.98     568    604.1     23.83
   2050   25.99     555    602.3     23.56
   2051   26.00     558    600.6     23.62
   2052   26.01     561    599.1     23.69
   2053   26.02     556    597.8     23.58
   2054   26.03     550    596.6     23.45
   2055   26.04     558    595.6     23.62
   2056   26.05     547    594.7     23.39
   2057   26.06     561    593.9     23.69
   2058   26.07     550    593.3     23.45
   2059   26.08     549    592.8     23.43
   2060   26.09     551    592.4     23.47
   2061   26.10     548    592.1     23.41
   2062   26.11     541    593.1     23.26
   2063   26.12     552    593.1     23.49
   2064   26.13     561    593.3     23.69
   2065   26.14     559    593.6     23.64
   2066   26.15     570    594.1     23.87
   2067   26.16     565    594.8     23.77
   2068   26.17     551    595.8     23.47
   2069   26.18     562      597     23.71
   2070   26.19     564      597     23.75
   2071   26.20     554      599     23.54
   2072   26.21     576    601.6     24.00
   2073   26.22     568    604.9     23.83
   2074   26.23     577    609.2     24.02
   2075   26.24     591    614.9     24.31
   2076   26.25     608    622.2     24.66
   2077   26.26     602    631.6     24.54
   2078   26.27     614    643.7     24.78
   2079   26.28     639    658.9     25.28
   2080   26.29     638    677.9     25.26
   2081   26.30     664    701.2     25.77
   2082   26.31     679    729.2     26.06
   2083   26.32     691    762.1     26.29
   2084   26.33     730      800     27.02
   2085   26.34     769    842.5     27.73
   2086   26.35     795    888.9     28.20
   2087   26.36     853      937     29.21
   2088   26.37     890    987.2     29.83
   2089   26.38     945   1035.9     30.74
   2090   26.39     992   1080.4     31.50
   2091   26.40    1053   1117.1     32.45
   2092   26.41    1097   1142.6     33.12
   2093   26.42    1121     1154     33.48
   2094   26.43    1129     1150     33.60
   2095   26.44    1138   1131.1     33.73
   2096   26.45    1108   1099.6     33.29
   2097   26.46    1064   1058.7     32.62
   2098   26.47    1000   1012.1     31.62
   2099   26.48     952    962.9     30.85
   2100   26.49     886    913.7     29.77
   2101   26.50     840    866.6     28.98
   2102   26.51     796    822.9     28.21
   2103   26.52     745    783.6     27.29
   2104   26.53     724    749.2     26.91
   2105   26.54     702    719.8     26.50
   2106   26.55     690    695.3     26.27
   2107   26.56     667    675.2     25.83
   2108   26.57     653    659.3     25.55
   2109   26.58     629    646.8     25.08
   2110   26.59     630    637.2     25.10
   2111   26.60     619    630.1     24.88
   2112   26.61     620    624.9     24.90
   2113   26.62     616    621.2     24.82
   2114   26.63     612    618.7     24.74
   2115   26.64     588    617.2     24.25
   2116   26.65     591    616.4     24.31
   2117   26.66     593    616.3     24.35
   2118   26.67     595    616.6     24.39
   2119   26.68     588    617.5     24.25
   2120   26.69     604    618.7     24.58
   2121   26.70     604    620.3     24.58
   2122   26.71     604    622.2     24.58
   2123   26.72     606    624.6     24.62
   2124   26.73     604    627.4     24.58
   2125   26.74     621    630.5     24.92
   2126   26.75     626    634.2     25.02
   2127   26.76     628    638.3     25.06
   2128   26.77     617    642.9     24.84
   2129   26.78     637    648.2     25.24
   2130   26.79     641      654     25.32
   2131   26.80     653    660.7     25.55
   2132   26.81     677    668.1     26.02
   2133   26.82     676    676.5     26.00
   2134   26.83     696    685.9     26.38
   2135   26.84     711    696.6     26.66
   2136   26.85     731    708.8     27.04
   2137   26.86     753    722.6     27.44
   2138   26.87     777    738.4     27.87
   2139   26.88     804    756.7     28.35
   2140   26.89     837    777.8     28.93
   2141   26.90     873    802.6     29.55
   2142   26.91     919      832     30.32
   2143   26.92     973    867.9     31.19
   2144   26.93    1049    912.6     32.39
   2145   26.94    1151    970.5     33.93
   2146   26.95    1232   1048.3     35.10
   2147   26.96    1387   1156.3     37.24
   2148   26.97    1553   1309.5     39.41
   2149   26.98    1752   1529.7     41.86
   2150   26.99    2038   1841.9     45.14
   2151   27.00    2401     2279     49.00
   2152   27.01    2864   2876.2     53.52
   2153   27.02    3544   3669.9     59.53
   2154   27.03    4394   4697.6     66.29
   2155   27.04    5574   5999.6     74.66
   2156   27.05    7230   7627.6     85.03
   2157   27.06    9406     9620     96.98
   2158   27.07   11882    11874    109.00
   2159   27.08   13942  13806.1    118.08
   2160   27.09   14247  14301.5    119.36
   2161   27.10   12897  12924.6    113.56
   2162   27.11   10674    10665    103.32
   2163   27.12    8251   8476.6     90.84
   2164   27.13    6278     6654     79.23
   2165   27.14    4852   5191.9     69.66
   2166   27.15    3813   4036.7     61.75
   2167   27.16    3016   3140.8     54.92
   2168   27.17    2487   2463.6     49.87
   2169   27.18    2062   1967.2     45.41
   2170   27.19    1740   1611.5     41.71
   2171   27.20    1488   1362.4     38.57
   2172   27.21    1318   1190.5     36.30
   2173   27.22    1176   1069.9     34.29
   2174   27.23    1097    984.1     33.12
   2175   27.24     993      921     31.51
   2176   27.25     912    872.8     30.20
   2177   27.26     872    834.7     29.53
   2178   27.27     824    803.5     28.71
   2179   27.28     778    777.4     27.89
   2180   27.29     755    755.2     27.48
   2181   27.30     726    736.1     26.94
   2182   27.31     709    716.7     26.63
   2183   27.32     695    702.3     26.36
   2184   27.33     678    689.5     26.04
   2185   27.34     647    678.3     25.44
   2186   27.35     630    668.4     25.10
   2187   27.36     632    659.6     25.14
   2188   27.37     630    651.7     25.10
   2189   27.38     611    644.7     24.72
   2190   27.39     614    638.4     24.78
   2191   27.40     604    633.8     24.58
   2192   27.41     607    627.8     24.64
   2193   27.42     592    623.2     24.33
   2194   27.43     603    619.2     24.56
   2195   27.44     601    615.6     24.52
   2196   27.45     595    612.3     24.39
   2197   27.46     577    609.4     24.02
   2198   27.47     582    606.8     24.12
   2199   27.48     583    605.5     24.15
   2200   27.49     577    603.5     24.02
   2201   27.50     583    601.8     24.15
   2202   27.51     575    600.4     23.98
   2203   27.52     567    599.2     23.81
   2204   27.53     576    598.2     24.00
   2205   27.54     572    597.4     23.92
   2206   27.55     572    596.9     23.92
   2207   27.56     571    596.7     23.90
   2208   27.57     571    596.7     23.90
   2209   27.58     560      597     23.66
   2210   27.59     571    597.6     23.90
   2211   27.60     578    598.7     24.04
   2212   27.61     576    600.2     24.00
   2213   27.62     580    602.2     24.08
   2214   27.63     582      605     24.12
   2215   27.64     585    608.6     24.19
   2216   27.65     594    613.3     24.37
   2217   27.66     594    619.3     24.37
   2218   27.67     612    626.9     24.74
   2219   27.68     621    636.4     24.92
   2220   27.69     617      648     24.84
   2221   27.70     634    662.1     25.18
   2222   27.71     652    678.9     25.53
   2223   27.72     656    698.7     25.61
   2224   27.73     679    721.7     26.06
   2225   27.74     708    747.8     26.61
   2226   27.75     734    776.8     27.09
   2227   27.76     755    808.4     27.48
   2228   27.77     798    841.8     28.25
   2229   27.78     823    876.2     28.69
   2230   27.79     852    910.2     29.19
   2231   27.80     886    942.6     29.77
   2232   27.81     930      972     30.50
   2233   27.82     951    997.4     30.84
   2234   27.83     971   1017.9     31.16
   2235   27.84     996   1032.6     31.56
   2236   27.85    1015   1040.7     31.86
   2237   27.86    1035   1041.5     32.17
   2238   27.87    1046   1035.1     32.34
   2239   27.88    1043     1022     32.30
   2240   27.89    1035   1003.8     32.17
   2241   27.90    1011    982.6     31.80
   2242   27.91     983    960.7     31.35
   2243   27.92     974    940.5     31.21
   2244   27.93     954      924     30.89
   2245   27.94     951    913.4     30.84
   2246   27.95     951    910.9     30.84
   2247   27.96     980    919.4     31.30
   2248   27.97    1008    942.7     31.75
   2249   27.98    1050    986.2     32.40
   2250   27.99    1126     1057     33.56
   2251   28.00    1202   1164.7     34.67
   2252   28.01    1357   1320.8     36.84
   2253   28.02    1538   1538.6     39.22
   2254   28.03    1767     1832     42.04
   2255   28.04    2104   2215.3     45.87
   2256   28.05    2523   2703.1     50.23
   2257   28.06    3141   3312.8     56.04
   2258   28.07    3995   4064.2     63.21
   2259   28.08    5003   4963.7     70.73
   2260   28.09    6195   5928.7     78.71
   2261   28.10    6991     6646     83.61
   2262   28.11    6870   6665.5     82.89
   2263   28.12    6062   5956.7     77.86
   2264   28.13    5006   4980.7     70.75
   2265   28.14    3970   4073.5     63.01
   2266   28.15    3139   3323.3     56.03
   2267   28.16    2525   2722.7     50.25
   2268   28.17    2092   2250.1     45.74
   2269   28.18    1758   1886.9     41.93
   2270   28.19    1555   1616.4     39.43
   2271   28.20    1395   1422.6     37.35
   2272   28.21    1289   1290.2     35.90
   2273   28.22    1211   1201.6     34.80
   2274   28.23    1157   1144.2     34.01
   2275   28.24    1120   1106.3     33.47
   2276   28.25    1097     1079     33.12
   2277   28.26    1089   1056.2     33.00
   2278   28.27    1063   1034.1     32.60
   2279   28.28    1059   1011.6     32.54
   2280   28.29    1034      989     32.16
   2281   28.30    1004    968.3     31.69
   2282   28.31     987    952.3     31.42
   2283   28.32     975    944.4     31.22
   2284   28.33     983    948.8     31.35
   2285   28.34     994    970.2     31.53
   2286   28.35    1022   1013.6     31.97
   2287   28.36    1096   1084.5     33.11
   2288   28.37    1170   1187.8     34.21
   2289   28.38    1272   1328.9     35.67
   2290   28.39    1465   1513.5     38.28
   2291   28.40    1708   1748.7     41.33
   2292   28.41    2023   2038.1     44.98
   2293   28.42    2377   2361.2     48.75
   2294   28.43    2684     2626     51.81
   2295   28.44    2688   2674.5     51.85
   2296   28.45    2409   2459.7     49.08
   2297   28.46    2062   2122.6     45.41
   2298   28.47    1709   1795.2     41.34
   2299   28.48    1434   1519.8     37.87
   2300   28.49    1222   1296.8     34.96
   2301   28.50    1042   1118.7     32.28
   2302   28.51     931    978.7     30.51
   2303   28.52     845    871.1     29.07
   2304   28.53     770    790.4     27.75
   2305   28.54     729    731.3     27.00
   2306   28.55     690    688.9     26.27
   2307   28.56     661    658.7     25.71
   2308   28.57     644      637     25.38
   2309   28.58     629    621.2     25.08
   2310   28.59     601    609.4     24.52
   2311   28.60     584    600.2     24.17
   2312   28.61     579    592.8     24.06
   2313   28.62     561    586.6     23.69
   2314   28.63     564    581.3     23.75
   2315   28.64     564    576.8     23.75
   2316   28.65     557    572.7     23.60
   2317   28.66     545    569.2     23.35
   2318   28.67     545      566     23.35
   2319   28.68     546    563.1     23.37
   2320   28.69     555    560.5     23.56
   2321   28.70     550    558.2     23.45
   2322   28.71     537    555.1     23.17
   2323   28.72     535    553.2     23.13
   2324   28.73     550    551.4     23.45
   2325   28.74     544    549.8     23.32
   2326   28.75     535    548.3     23.13
   2327   28.76     525    545.9     22.91
   2328   28.77     530    544.7     23.02
   2329   28.78     522    544.5     22.85
   2330   28.79     519    543.4     22.78
   2331   28.80     516    542.5     22.72
   2332   28.81     513    541.5     22.65
   2333   28.82     521    540.7     22.83
   2334   28.83     516    539.9     22.72
   2335   28.84     520    539.1     22.80
   2336   28.85     523    540.4     22.87
   2337   28.86     518    539.8     22.76
   2338   28.87     514    539.2     22.67
   2339   28.88     519    538.6     22.78
   2340   28.89     514    538.1     22.67
   2341   28.90     504    537.6     22.45
   2342   28.91     515    537.2     22.69
   2343   28.92     512    536.8     22.63
   2344   28.93     514    536.4     22.67
   2345   28.94     517      536     22.74
   2346   28.95     511    535.7     22.61
   2347   28.96     512    535.4     22.63
   2348   28.97     518    535.1     22.76
   2349   28.98     514    534.9     22.67
   2350   28.99     502    534.7     22.41
   2351   29.00     512    534.5     22.63
   2352   29.01     512    534.3     22.63
   2353   29.02     508    534.1     22.54
   2354   29.03     509      534     22.56
   2355   29.04     515    533.9     22.69
   2356   29.05     518    533.8     22.76
   2357   29.06     511    533.7     22.61
   2358   29.07     511    533.7     22.61
   2359   29.08     515    533.7     22.69
   2360   29.09     523    531.4     22.87
   2361   29.10     513    531.5     22.65
   2362   29.11     506    531.5     22.49
   2363   29.12     514    531.6     22.67
   2364   29.13     509    530.8     22.56
   2365   29.14     501      531     22.38
   2366   29.15     514    531.2     22.67
   2367   29.16     513    531.4     22.65
   2368   29.17     514    531.7     22.67
   2369   29.18     516      532     22.72
   2370   29.19     515    532.3     22.69
   2371   29.20     511    532.7     22.61
   2372   29.21     531    533.1     23.04
   2373   29.22     521    533.6     22.83
   2374   29.23     534    534.1     23.11
   2375   29.24     534    534.6     23.11
   2376   29.25     517    535.2     22.74
   2377   29.26     519    535.9     22.78
   2378   29.27     520    536.7     22.80
   2379   29.28     519    537.5     22.78
   2380   29.29     533    539.4     23.09
   2381   29.30     525    540.5     22.91
   2382   29.31     532    541.7     23.07
   2383   29.32     536      543     23.15
   2384   29.33     534    544.6     23.11
   2385   29.34     536    546.3     23.15
   2386   29.35     544    548.4     23.32
   2387   29.36     556    550.9     23.58
   2388   29.37     556    553.9     23.58
   2389   29.38     551    557.5     23.47
   2390   29.39     556    561.9     23.58
   2391   29.40     554    567.3     23.54
   2392   29.41     560    573.9     23.66
   2393   29.42     574    581.9     23.96
   2394   29.43     583    591.5     24.15
   2395   29.44     586    603.1     24.21
   2396   29.45     608    616.6     24.66
   2397   29.46     612    632.3     24.74
   2398   29.47     629    650.1     25.08
   2399   29.48     656      670     25.61
   2400   29.49     667    691.7     25.83
   2401   29.50     683    714.8     26.13
   2402   29.51     721    738.8     26.85
   2403   29.52     737    762.7     27.15
   2404   29.53     766    785.8     27.68
   2405   29.54     791    806.8     28.12
   2406   29.55     828    824.8     28.77
   2407   29.56     840      839     28.98
   2408   29.57     880    849.6     29.66
   2409   29.58     880    857.8     29.66
   2410   29.59     890    865.8     29.83
   2411   29.60     930    877.3     30.50
   2412   29.61     938      897     30.63
   2413   29.62     970    930.5     31.14
   2414   29.63    1006    984.1     31.72
   2415   29.64    1059   1064.9     32.54
   2416   29.65    1183   1179.3     34.39
   2417   29.66    1320   1336.3     36.33
   2418   29.67    1489   1542.2     38.59
   2419   29.68    1761   1805.1     41.96
   2420   29.69    2148   2134.2     46.35
   2421   29.70    2628   2537.1     51.26
   2422   29.71    3235   2998.6     56.88
   2423   29.72    3727   3426.4     61.05
   2424   29.73    3827   3620.1     61.86
   2425   29.74    3511   3440.3     59.25
   2426   29.75    3033   3012.2     55.07
   2427   29.76    2461   2546.2     49.61
   2428   29.77    1984   2139.6     44.54
   2429   29.78    1635   1807.2     40.44
   2430   29.79    1380   1540.4     37.15
   2431   29.80    1178     1329     34.32
   2432   29.81    1071   1164.2     32.73
   2433   29.82     977   1038.2     31.26
   2434   29.83     888    943.2     29.80
   2435   29.84     852    872.1     29.19
   2436   29.85     812    818.4     28.50
   2437   29.86     773    777.9     27.80
   2438   29.87     744    744.9     27.28
   2439   29.88     718    717.6     26.80
   2440   29.89     703    694.3     26.51
   2441   29.90     673    674.1     25.94
   2442   29.91     659    656.2     25.67
   2443   29.92     638    640.3     25.26
   2444   29.93     651    626.3     25.51
   2445   29.94     622    614.1     24.94
   2446   29.95     611    603.4     24.72
   2447   29.96     607    594.2     24.64
   2448   29.97     595    586.4     24.39
   2449   29.98     592    579.9     24.33
   2450   29.99     586    574.3     24.21
   2451   30.00     583    569.7     24.15
   2452   30.01     577    565.9     24.02
   2453   30.02     573    562.8     23.94
   2454   30.03     562    560.2     23.71
   2455   30.04     555      558     23.56
   2456   30.05     558    556.2     23.62
   2457   30.06     548    554.7     23.41
   2458   30.07     550    553.5     23.45
   2459   30.08     554    552.5     23.54
   2460   30.09     551    551.7     23.47
   2461   30.10     544    551.1     23.32
   2462   30.11     561    549.6     23.69
   2463   30.12     554    549.2     23.54
   2464   30.13     570      549     23.87
   2465   30.14     563      549     23.73
   2466   30.15     561      549     23.69
   2467   30.16     550    549.2     23.45
   2468   30.17     570    549.5     23.87
   2469   30.18     564    552.5     23.75
   2470   30.19     558    553.1     23.62
   2471   30.20     568    553.7     23.83
   2472   30.21     567    554.5     23.81
   2473   30.22     563    555.4     23.73
   2474   30.23     565    556.4     23.77
   2475   30.24     569    557.6     23.85
   2476   30.25     577    558.9     24.02
   2477   30.26     569    560.4     23.85
   2478   30.27     575      562     23.98
   2479   30.28     579    563.9     24.06
   2480   30.29     570    566.9     23.87
   2481   30.30     590    569.1     24.29
   2482   30.31     591    571.6     24.31
   2483   30.32     602    574.3     24.54
   2484   30.33     589    577.4     24.27
   2485   30.34     595    580.7     24.39
   2486   30.35     597    584.4     24.43
   2487   30.36     605    587.5     24.60
   2488   30.37     617      592     24.84
   2489   30.38     631      597     25.12
   2490   30.39     635    601.7     25.20
   2491   30.40     640      608     25.30
   2492   30.41     654      615     25.57
   2493   30.42     691    622.9     26.29
   2494   30.43     685    631.8     26.17
   2495   30.44     716    641.9     26.76
   2496   30.45     712    653.4     26.68
   2497   30.46     739    666.7     27.18
   2498   30.47     772    682.1     27.78
   2499   30.48     805    700.3     28.37
   2500   30.49     844    722.3     29.05
   2501   30.50     879    749.6     29.65
   2502   30.51     938    784.4     30.63
   2503   30.52     994    830.4     31.53
   2504   30.53    1052    892.7     32.43
   2505   30.54    1148    978.8     33.88
   2506   30.55    1292   1098.5     35.94
   2507   30.56    1416   1264.4     37.63
   2508   30.57    1624   1491.4     40.30
   2509   30.58    1865   1795.9     43.19
   2510   30.59    2235   2195.1     47.28
   2511   30.60    2638   2706.4     51.36
   2512   30.61    3217   3348.1     56.72
   2513   30.62    4033   4141.7     63.51
   2514   30.63    5040   5111.6     70.99
   2515   30.64    6304     6267     79.40
   2516   30.65    7798   7522.7     88.31
   2517   30.66    8771   8545.4     93.65
   2518   30.67    8866   8792.2     94.16
   2519   30.68    7977     8072     89.31
   2520   30.69    6676   6847.1     81.71
   2521   30.70    5298   5607.5     72.79
   2522   30.71    4222   4540.7     64.98
   2523   30.72    3351   3664.3     57.89
   2524   30.73    2708   2955.1     52.04
   2525   30.74    2271   2390.1     47.66
   2526   30.75    1888   1946.9     43.45
   2527   30.76    1635   1608.1     40.44
   2528   30.77    1479   1355.8     38.46
   2529   30.78    1306   1172.4     36.14
   2530   30.79    1174   1041.9     34.26
   2531   30.80    1093    951.6     33.06
   2532   30.81    1014    888.5     31.84
   2533   30.82     982    845.7     31.34
   2534   30.83     930      818     30.50
   2535   30.84     908    802.3     30.13
   2536   30.85     905    797.6     30.08
   2537   30.86     914      804     30.23
   2538   30.87     899    822.9     29.98
   2539   30.88     923    856.5     30.38
   2540   30.89     969    907.4     31.13
   2541   30.90    1013    978.2     31.83
   2542   30.91    1077     1072     32.82
   2543   30.92    1200     1192     34.64
   2544   30.93    1338   1342.3     36.58
   2545   30.94    1564     1527     39.55
   2546   30.95    1835   1744.9     42.84
   2547   30.96    2052   1966.4     45.30
   2548   30.97    2202   2113.4     46.93
   2549   30.98    2153   2094.3     46.40
   2550   30.99    1929     1917     43.92
   2551   31.00    1666   1681.7     40.82
   2552   31.01    1442   1460.2     37.97
   2553   31.02    1244   1273.5     35.27
   2554   31.03    1096   1121.1     33.11
   2555   31.04     983    998.3     31.35
   2556   31.05     906    902.5     30.10
   2557   31.06     846    827.5     29.09
   2558   31.07     812    771.6     28.50
   2559   31.08     790    731.6     28.11
   2560   31.09     754    704.6     27.46
   2561   31.10     750    688.1     27.39
   2562   31.11     738    679.9     27.17
   2563   31.12     738    678.4     27.17
   2564   31.13     744    682.5     27.28
   2565   31.14     749    691.5     27.37
   2566   31.15     750    704.9     27.39
   2567   31.16     749    722.4     27.37
   2568   31.17     773    743.9     27.80
   2569   31.18     791    768.8     28.12
   2570   31.19     810    796.8     28.46
   2571   31.20     837    827.1     28.93
   2572   31.21     843    858.8     29.03
   2573   31.22     883    890.6     29.72
   2574   31.23     901    921.2     30.02
   2575   31.24     909    948.1     30.15
   2576   31.25     951    971.9     30.84
   2577   31.26     956    989.9     30.92
   2578   31.27     988   1000.7     31.43
   2579   31.28     995   1003.1     31.54
   2580   31.29    1000    996.5     31.62
   2581   31.30     985    981.5     31.38
   2582   31.31     977    959.3     31.26
   2583   31.32     968    931.8     31.11
   2584   31.33     939    901.5     30.64
   2585   31.34     916    870.3     30.27
   2586   31.35     900    840.2     30.00
   2587   31.36     868    812.5     29.46
   2588   31.37     848    788.4     29.12
   2589   31.38     829    768.6     28.79
   2590   31.39     807    753.5     28.41
   2591   31.40     792    743.1     28.14
   2592   31.41     778    737.4     27.89
   2593   31.42     773    735.9     27.80
   2594   31.43     771      739     27.77
   2595   31.44     779    743.9     27.91
   2596   31.45     792    750.7     28.14
   2597   31.46     788    758.3     28.07
   2598   31.47     795    765.4     28.20
   2599   31.48     799      771     28.27
   2600   31.49     810    774.3     28.46
   2601   31.50     811      775     28.48
   2602   31.51     797    773.3     28.23
   2603   31.52     816    769.8     28.57
   2604   31.53     815    765.5     28.55
   2605   31.54     807    761.1     28.41
   2606   31.55     801    757.5     28.30
   2607   31.56     781    755.2     27.95
   2608   31.57     779    754.5     27.91
   2609   31.58     776    755.4     27.86
   2610   31.59     774    757.6     27.82
   2611   31.60     763    760.7     27.62
   2612   31.61     791    763.7     28.12
   2613   31.62     798    765.9     28.25
   2614   31.63     788    766.2     28.07
   2615   31.64     769    763.9     27.73
   2616   31.65     781    758.4     27.95
   2617   31.66     754    749.9     27.46
   2618   31.67     772    738.8     27.78
   2619   31.68     751    725.8     27.40
   2620   31.69     729    711.9     27.00
   2621   31.70     727    697.6     26.96
   2622   31.71     720    683.6     26.83
   2623   31.72     694    670.5     26.34
   2624   31.73     689    658.6     26.25
   2625   31.74     684    647.1     26.15
   2626   31.75     683    638.2     26.13
   2627   31.76     686      631     26.19
   2628   31.77     681    625.4     26.10
   2629   31.78     658    621.4     25.65
   2630   31.79     675    618.8     25.98
   2631   31.80     659    617.6     25.67
   2632   31.81     675    617.7     25.98
   2633   31.82     687    618.8     26.21
   2634   31.83     672      621     25.92
   2635   31.84     673    624.1     25.94
   2636   31.85     692    628.2     26.31
   2637   31.86     689    633.1     26.25
   2638   31.87     689    638.8     26.25
   2639   31.88     709    645.5     26.63
   2640   31.89     709    653.1     26.63
   2641   31.90     722    661.8     26.87
   2642   31.91     742    671.6     27.24
   2643   31.92     758    682.8     27.53
   2644   31.93     775    695.4     27.84
   2645   31.94     808    709.8     28.43
   2646   31.95     822    726.3     28.67
   2647   31.96     850    745.3     29.15
   2648   31.97     882    767.3     29.70
   2649   31.98     927    793.3     30.45
   2650   31.99     970    824.5     31.14
   2651   32.00    1038    862.8     32.22
   2652   32.01    1102    911.4     33.20
   2653   32.02    1187    974.7     34.45
   2654   32.03    1306   1059.3     36.14
   2655   32.04    1452   1174.8     38.11
   2656   32.05    1598   1333.8     39.97
   2657   32.06    1810   1552.6     42.54
   2658   32.07    2038   1850.8     45.14
   2659   32.08    2356   2249.7     48.54
   2660   32.09    2797   2774.4     52.89
   2661   32.10    3339   3448.1     57.78
   2662   32.11    4046   4295.7     63.61
   2663   32.12    5074   5343.8     71.23
   2664   32.13    6311   6625.5     79.44
   2665   32.14    7977   8171.1     89.31
   2666   32.15   10190   9963.4    100.95
   2667   32.16   12270  11783.1    110.77
   2668   32.17   13558  13026.4    116.44
   2669   32.18   13383  12978.1    115.68
   2670   32.19   11839  11646.7    108.81
   2671   32.20    9735   9784.9     98.67
   2672   32.21    7726   7988.4     87.90
   2673   32.22    6045   6452.2     77.75
   2674   32.23    4756   5185.8     68.96
   2675   32.24    3814     4154     61.76
   2676   32.25    3092   3324.7     55.61
   2677   32.26    2591   2669.6     50.90
   2678   32.27    2201   2163.2     46.91
   2679   32.28    1896   1780.8     43.54
   2680   32.29    1659   1496.8     40.73
   2681   32.30    1457   1290.8     38.17
   2682   32.31    1320     1142     36.33
   2683   32.32    1192   1034.4     34.53
   2684   32.33    1105    955.5     33.24
   2685   32.34    1003    895.4     31.67
   2686   32.35     953    849.9     30.87
   2687   32.36     918    813.8     30.30
   2688   32.37     868    784.3     29.46
   2689   32.38     823    759.6     28.69
   2690   32.39     799    738.7     28.27
   2691   32.40     759    720.6     27.55
   2692   32.41     738    704.9     27.17
   2693   32.42     731    691.2     27.04
   2694   32.43     706    679.2     26.57
   2695   32.44     697    668.6     26.40
   2696   32.45     685    659.2     26.17
   2697   32.46     674    648.9     25.96
   2698   32.47     667    641.6     25.83
   2699   32.48     655    635.1     25.59
   2700   32.49     652    629.3     25.53
   2701   32.50     641    624.3     25.32
   2702   32.51     641    619.8     25.32
   2703   32.52     623    615.9     24.96
   2704   32.53     616    612.5     24.82
   2705   32.54     618    609.6     24.86
   2706   32.55     622    607.1     24.94
   2707   32.56     628      605     25.06
   2708   32.57     621    603.4     24.92
   2709   32.58     611    602.2     24.72
   2710   32.59     617    602.4     24.84
   2711   32.60     607      602     24.64
   2712   32.61     619    602.2     24.88
   2713   32.62     625    602.8     25.00
   2714   32.63     639    604.1     25.28
   2715   32.64     623      606     24.96
   2716   32.65     638    608.7     25.26
   2717   32.66     649    612.3     25.48
   2718   32.67     640    616.9     25.30
   2719   32.68     639    622.6     25.28
   2720   32.69     650    629.6     25.50
   2721   32.70     656      638     25.61
   2722   32.71     660    647.9     25.69
   2723   32.72     682    659.3     26.12
   2724   32.73     693    672.3     26.32
   2725   32.74     709    686.8     26.63
   2726   32.75     724    702.6     26.91
   2727   32.76     731    719.6     27.04
   2728   32.77     758    737.3     27.53
   2729   32.78     783    755.3     27.98
   2730   32.79     793    773.2     28.16
   2731   32.80     830    790.2     28.81
   2732   32.81     842    805.9     29.02
   2733   32.82     879    819.8     29.65
   2734   32.83     905    831.8     30.08
   2735   32.84     925    842.5     30.41
   2736   32.85     951    852.9     30.84
   2737   32.86     975    864.4     31.22
   2738   32.87    1015      879     31.86
   2739   32.88    1050    899.5     32.40
   2740   32.89    1094    929.2     33.08
   2741   32.90    1156    972.8     34.00
   2742   32.91    1242   1036.7     35.24
   2743   32.92    1328   1129.1     36.44
   2744   32.93    1458   1260.6     38.18
   2745   32.94    1595   1443.9     39.94
   2746   32.95    1804   1693.7     42.47
   2747   32.96    2094   2025.2     45.76
   2748   32.97    2393   2454.9     48.92
   2749   32.98    2836   2998.5     53.25
   2750   32.99    3474   3673.8     58.94
   2751   33.00    4233   4500.7     65.06
   2752   33.01    5332   5502.2     73.02
   2753   33.02    6664   6687.4     81.63
   2754   33.03    8193   7982.2     90.52
   2755   33.04    9405   9100.4     96.98
   2756   33.05    9858   9532.7     99.29
   2757   33.06    9142   8993.4     95.61
   2758   33.07    7819   7814.9     88.43
   2759   33.08    6397   6510.7     79.98
   2760   33.09    5075   5341.8     71.24
   2761   33.10    4063   4362.7     63.74
   2762   33.11    3299   3559.2     57.44
   2763   33.12    2725   2907.9     52.20
   2764   33.13    2267   2387.7     47.61
   2765   33.14    1966   1981.1     44.34
   2766   33.15    1733   1670.6     41.63
   2767   33.16    1530   1439.4     39.12
   2768   33.17    1372   1270.8     37.04
   2769   33.18    1263   1149.6     35.54
   2770   33.19    1187   1062.5     34.45
   2771   33.20    1133    998.8     33.66
   2772   33.21    1076    950.2     32.80
   2773   33.22    1011    910.7     31.80
   2774   33.23     961    876.5     31.00
   2775   33.24     928    845.4     30.46
   2776   33.25     889    816.2     29.82
   2777   33.26     852    788.7     29.19
   2778   33.27     811    762.6     28.48
   2779   33.28     792    738.2     28.14
   2780   33.29     755    715.5     27.48
   2781   33.30     713    694.6     26.70
   2782   33.31     696    675.6     26.38
   2783   33.32     674    658.5     25.96
   2784   33.33     647    643.3     25.44
   2785   33.34     632    629.9     25.14
   2786   33.35     628    618.1     25.06
   2787   33.36     607    607.7     24.64
   2788   33.37     600    598.8     24.49
   2789   33.38     592      591     24.33
   2790   33.39     573    584.2     23.94
   2791   33.40     569    578.3     23.85
   2792   33.41     567    573.2     23.81
   2793   33.42     560    568.6     23.66
   2794   33.43     548    565.5     23.41
   2795   33.44     545    561.9     23.35
   2796   33.45     552    558.6     23.49
   2797   33.46     551    555.7     23.47
   2798   33.47     547      552     23.39
   2799   33.48     542    549.5     23.28
   2800   33.49     535    547.3     23.13
   2801   33.50     533    545.1     23.09
   2802   33.51     532    543.2     23.07
   2803   33.52     529    541.4     23.00
   2804   33.53     531    539.6     23.04
   2805   33.54     519      538     22.78
   2806   33.55     513    536.5     22.65
   2807   33.56     509    535.1     22.56
   2808   33.57     500    533.8     22.36
   2809   33.58     508    533.5     22.54
   2810   33.59     525    532.4     22.91
   2811   33.60     506    531.3     22.49
   2812   33.61     517    530.3     22.74
   2813   33.62     505    529.3     22.47
   2814   33.63     516    528.4     22.72
   2815   33.64     507    527.5     22.52
   2816   33.65     505    526.7     22.47
   2817   33.66     504    525.9     22.45
   2818   33.67     499    525.2     22.34
   2819   33.68     501    524.5     22.38
   2820   33.69     497    523.9     22.29
   2821   33.70     488    523.2     22.09
   2822   33.71     489    522.7     22.11
   2823   33.72     500    522.1     22.36
   2824   33.73     504    521.6     22.45
   2825   33.74     504    521.1     22.45
   2826   33.75     500    520.6     22.36
   2827   33.76     504    520.2     22.45
   2828   33.77     514    520.8     22.67
   2829   33.78     505    520.5     22.47
   2830   33.79     497    520.1     22.29
   2831   33.80     494    519.9     22.23
   2832   33.81     495    519.6     22.25
   2833   33.82     492    520.3     22.18
   2834   33.83     497    520.1     22.29
   2835   33.84     492      520     22.18
   2836   33.85     491    518.8     22.16
   2837   33.86     498    518.7     22.32
   2838   33.87     496    518.7     22.27
   2839   33.88     496    518.6     22.27
   2840   33.89     495    518.6     22.25
   2841   33.90     493    518.6     22.20
   2842   33.91     491    518.6     22.16
   2843   33.92     488    518.7     22.09
   2844   33.93     493    518.8     22.20
   2845   33.94     475    518.9     21.79
   2846   33.95     490      519     22.14
   2847   33.96     477    519.2     21.84
   2848   33.97     489    519.4     22.11
   2849   33.98     497    519.7     22.29
   2850   33.99     503      520     22.43
   2851   34.00     501    520.3     22.38
   2852   34.01     505    520.7     22.47
   2853   34.02     506    521.1     22.49
   2854   34.03     506    521.6     22.49
   2855   34.04     503    522.1     22.43
   2856   34.05     506    522.7     22.49
   2857   34.06     494    523.4     22.23
   2858   34.07     503    524.2     22.43
   2859   34.08     497    525.1     22.29
   2860   34.09     495      526     22.25
   2861   34.10     507    527.2     22.52
   2862   34.11     506    528.4     22.49
   2863   34.12     512    529.9     22.63
   2864   34.13     513    531.6     22.65
   2865   34.14     512    533.7     22.63
   2866   34.15     515    536.1     22.69
   2867   34.16     536      540     23.15
   2868   34.17     523    543.6     22.87
   2869   34.18     533    545.3     23.09
   2870   34.19     552    550.6     23.49
   2871   34.20     547    557.1     23.39
   2872   34.21     564    564.9     23.75
   2873   34.22     571    574.4     23.90
   2874   34.23     583    585.8     24.15
   2875   34.24     583    599.3     24.15
   2876   34.25     604    615.2     24.58
   2877   34.26     623    633.6     24.96
   2878   34.27     632    654.8     25.14
   2879   34.28     653    678.7     25.55
   2880   34.29     681    705.5     26.10
   2881   34.30     698      735     26.42
   2882   34.31     749    767.3     27.37
   2883   34.32     766    802.1     27.68
   2884   34.33     805    839.5     28.37
   2885   34.34     837    879.6     28.93
   2886   34.35     894    922.7     29.90
   2887   34.36     938    969.5     30.63
   2888   34.37     997   1020.8     31.58
   2889   34.38    1067   1077.9     32.66
   2890   34.39    1117   1142.1     33.42
   2891   34.40    1206   1215.2     34.73
   2892   34.41    1261   1299.9     35.51
   2893   34.42    1362   1399.7     36.91
   2894   34.43    1508   1517.9     38.83
   2895   34.44    1633   1651.4     40.41
   2896   34.45    1777   1778.2     42.15
   2897   34.46    1868   1846.1     43.22
   2898   34.47    1832   1803.5     42.80
   2899   34.48    1676   1660.4     40.94
   2900   34.49    1475   1478.4     38.41
   2901   34.50    1276     1304     35.72
   2902   34.51    1129   1153.2     33.60
   2903   34.52    1002   1027.3     31.65
   2904   34.53     922    923.6     30.36
   2905   34.54     829    839.3     28.79
   2906   34.55     772      772     27.78
   2907   34.56     734    719.6     27.09
   2908   34.57     694      680     26.34
   2909   34.58     666    651.1     25.81
   2910   34.59     651    630.8     25.51
   2911   34.60     629    617.6     25.08
   2912   34.61     626    611.7     25.02
   2913   34.62     616    608.1     24.82
   2914   34.63     600    607.7     24.49
   2915   34.64     602    609.8     24.54
   2916   34.65     602    613.7     24.54
   2917   34.66     597    617.9     24.43
   2918   34.67     598    623.8     24.45
   2919   34.68     599      630     24.47
   2920   34.69     597    635.8     24.43
   2921   34.70     613    640.6     24.76
   2922   34.71     599    643.8     24.47
   2923   34.72     608      645     24.66
   2924   34.73     624    643.8     24.98
   2925   34.74     623    640.1     24.96
   2926   34.75     617    634.3     24.84
   2927   34.76     612    627.7     24.74
   2928   34.77     598      619     24.45
   2929   34.78     585    609.6     24.19
   2930   34.79     576      600     24.00
   2931   34.80     569    590.6     23.85
   2932   34.81     547    581.7     23.39
   2933   34.82     559    573.4     23.64
   2934   34.83     552    565.9     23.49
   2935   34.84     539    559.4     23.22
   2936   34.85     543    553.7     23.30
   2937   34.86     534      549     23.11
   2938   34.87     520    545.1     22.80
   2939   34.88     507    541.9     22.52
   2940   34.89     525    539.5     22.91
   2941   34.90     504    537.7     22.45
   2942   34.91     503    536.4     22.43
   2943   34.92     504    535.6     22.45
   2944   34.93     498    535.1     22.32
   2945   34.94     511      534     22.61
   2946   34.95     506    534.2     22.49
   2947   34.96     512    534.7     22.63
   2948   34.97     528    535.3     22.98
   2949   34.98     512    536.2     22.63
   2950   34.99     507    537.4     22.52
   2951   35.00     510    538.7     22.58
   2952   35.01     521    540.3     22.83
   2953   35.02     506    542.1     22.49
   2954   35.03     539    544.3     23.22
   2955   35.04     527    546.7     22.96
   2956   35.05     518    548.3     22.76
   2957   35.06     534    551.5     23.11
   2958   35.07     541    555.3     23.26
   2959   35.08     540    559.7     23.24
   2960   35.09     565      565     23.77
   2961   35.10     573    571.4     23.94
   2962   35.11     585    579.3     24.19
   2963   35.12     610    589.3     24.70
   2964   35.13     619    602.4     24.88
   2965   35.14     632    619.7     25.14
   2966   35.15     653    642.9     25.55
   2967   35.16     676    674.3     26.00
   2968   35.17     723    716.3     26.89
   2969   35.18     777    772.2     27.87
   2970   35.19     824    845.1     28.71
   2971   35.20     887    938.7     29.78
   2972   35.21     987   1056.4     31.42
   2973   35.22    1102   1201.9     33.20
   2974   35.23    1266   1378.2     35.58
   2975   35.24    1475   1592.2     38.41
   2976   35.25    1756   1847.5     41.90
   2977   35.26    2091   2142.7     45.73
   2978   35.27    2483   2452.3     49.83
   2979   35.28    2763   2698.7     52.56
   2980   35.29    2850     2769     53.39
   2981   35.30    2693   2617.8     51.89
   2982   35.31    2346   2333.5     48.44
   2983   35.32    1995   2024.1     44.67
   2984   35.33    1672   1745.4     40.89
   2985   35.34    1415   1510.1     37.62
   2986   35.35    1246   1315.7     35.30
   2987   35.36    1101   1156.9     33.18
   2988   35.37     985   1029.5     31.38
   2989   35.38     909    929.8     30.15
   2990   35.39     875    854.7     29.58
   2991   35.40     834    801.2     28.88
   2992   35.41     799    766.8     28.27
   2993   35.42     792    749.5     28.14
   2994   35.43     788      748     28.07
   2995   35.44     797      762     28.23
   2996   35.45     814    792.1     28.53
   2997   35.46     831    839.4     28.83
   2998   35.47     879    905.8     29.65
   2999   35.48     956    993.3     30.92
   3000   35.49    1035   1103.4     32.17
   3001   35.50    1141   1241.9     33.78
   3002   35.51    1322   1409.6     36.36
   3003   35.52    1522   1611.1     39.01
   3004   35.53    1770     1847     42.07
   3005   35.54    2094   2097.6     45.76
   3006   35.55    2326   2305.5     48.23
   3007   35.56    2410   2379.3     49.09
   3008   35.57    2305   2272.1     48.01
   3009   35.58    2039   2043.5     45.16
   3010   35.59    1762   1786.1     41.98
   3011   35.60    1466   1550.4     38.29
   3012   35.61    1256   1349.5     35.44
   3013   35.62    1097   1182.1     33.12
   3014   35.63     985   1043.8     31.38
   3015   35.64     879      931     29.65
   3016   35.65     807    840.3     28.41
   3017   35.66     738    768.8     27.17
   3018   35.67     693    713.5     26.32
   3019   35.68     653    671.5     25.55
   3020   35.69     635      640     25.20
   3021   35.70     601    616.7     24.52
   3022   35.71     595    599.4     24.39
   3023   35.72     579    586.5     24.06
   3024   35.73     563    576.8     23.73
   3025   35.74     559    569.2     23.64
   3026   35.75     550    563.3     23.45
   3027   35.76     543    558.5     23.30
   3028   35.77     534    554.5     23.11
   3029   35.78     520    551.2     22.80
   3030   35.79     523    548.4     22.87
   3031   35.80     507    546.1     22.52
   3032   35.81     518    544.2     22.76
   3033   35.82     502    543.6     22.41
   3034   35.83     502    542.4     22.41
   3035   35.84     506    541.6     22.49
   3036   35.85     503    541.2     22.43
   3037   35.86     510    541.1     22.58
   3038   35.87     502    541.5     22.41
   3039   35.88     517    542.5     22.74
   3040   35.89     512    543.9     22.63
   3041   35.90     516      546     22.72
   3042   35.91     521    548.8     22.83
   3043   35.92     517    552.3     22.74
   3044   35.93     522    556.5     22.85
   3045   35.94     523    561.6     22.87
   3046   35.95     527    567.4     22.96
   3047   35.96     534      574     23.11
   3048   35.97     532    581.2     23.07
   3049   35.98     538    588.8     23.19
   3050   35.99     553    596.7     23.52
   3051   36.00     572    604.6     23.92
   3052   36.01     573    612.2     23.94
   3053   36.02     598      619     24.45
   3054   36.03     591    624.6     24.31
   3055   36.04     603    628.7     24.56
   3056   36.05     609    631.1     24.68
   3057   36.06     615    631.7     24.80
   3058   36.07     607    630.7     24.64
   3059   36.08     603    628.5     24.56
   3060   36.09     611    625.5     24.72
   3061   36.10     602    622.1     24.54
   3062   36.11     614    618.7     24.78
   3063   36.12     600    615.4     24.49
   3064   36.13     588    612.4     24.25
   3065   36.14     581    609.8     24.10
   3066   36.15     576    607.3     24.00
   3067   36.16     576    604.9     24.00
   3068   36.17     569    602.5     23.85
   3069   36.18     564    599.8     23.75
   3070   36.19     564    596.8     23.75
   3071   36.20     563    593.4     23.73
   3072   36.21     559    589.9     23.64
   3073   36.22     558    586.3     23.62
   3074   36.23     569    582.7     23.85
   3075   36.24     573    579.4     23.94
   3076   36.25     563    576.4     23.73
   3077   36.26     561    573.8     23.69
   3078   36.27     564    571.8     23.75
   3079   36.28     555    570.4     23.56
   3080   36.29     558    569.6     23.62
   3081   36.30     564    569.4     23.75
   3082   36.31     569    569.8     23.85
   3083   36.32     575      571     23.98
   3084   36.33     569    572.8     23.85
   3085   36.34     571    575.3     23.90
   3086   36.35     592    578.5     24.33
   3087   36.36     588    582.5     24.25
   3088   36.37     606    587.2     24.62
   3089   36.38     609    592.8     24.68
   3090   36.39     620    599.3     24.90
   3091   36.40     632    606.9     25.14
   3092   36.41     645    615.9     25.40
   3093   36.42     661    626.5     25.71
   3094   36.43     706    639.3     26.57
   3095   36.44     735    655.1     27.11
   3096   36.45     761    674.9     27.59
   3097   36.46     791    700.5     28.12
   3098   36.47     842    734.1     29.02
   3099   36.48     874    778.9     29.56
   3100   36.49     939      839     30.64
   3101   36.50    1034    917.4     32.16
   3102   36.51    1110   1025.4     33.32
   3103   36.52    1200   1165.6     34.64
   3104   36.53    1371   1346.3     37.03
   3105   36.54    1525   1574.9     39.05
   3106   36.55    1749   1857.8     41.82
   3107   36.56    2052   2205.2     45.30
   3108   36.57    2416   2624.8     49.15
   3109   36.58    2922   3126.7     54.06
   3110   36.59    3536   3720.5     59.46
   3111   36.60    4290   4393.7     65.50
   3112   36.61    5103     5069     71.44
   3113   36.62    5750   5554.2     75.83
   3114   36.63    5837     5618     76.40
   3115   36.64    5383   5215.7     73.37
   3116   36.65    4697   4558.5     68.53
   3117   36.66    3888   3869.5     62.35
   3118   36.67    3170   3252.3     56.30
   3119   36.68    2605   2728.2     51.04
   3120   36.69    2180   2291.3     46.69
   3121   36.70    1861     1930     43.14
   3122   36.71    1626   1634.9     40.32
   3123   36.72    1419   1397.3     37.67
   3124   36.73    1221   1209.6     34.94
   3125   36.74    1119   1063.8     33.45
   3126   36.75    1029    952.5     32.08
   3127   36.76     949    868.5     30.81
   3128   36.77     885    805.5     29.75
   3129   36.78     839    759.1     28.97
   3130   36.79     796    723.2     28.21
   3131   36.80     761    695.6     27.59
   3132   36.81     745    673.8     27.29
   3133   36.82     708    656.2     26.61
   3134   36.83     686    641.8     26.19
   3135   36.84     646    629.6     25.42
   3136   36.85     637    619.2     25.24
   3137   36.86     626    610.3     25.02
   3138   36.87     613    602.6     24.76
   3139   36.88     600      596     24.49
   3140   36.89     605    590.2     24.60
   3141   36.90     596    586.2     24.41
   3142   36.91     587      582     24.23
   3143   36.92     587    578.3     24.23
   3144   36.93     574    575.2     23.96
   3145   36.94     569    572.6     23.85
   3146   36.95     567    570.5     23.81
   3147   36.96     571    568.7     23.90
   3148   36.97     560    567.3     23.66
   3149   36.98     562    567.3     23.71
   3150   36.99     556    566.7     23.58
   3151   37.00     548    565.5     23.41
   3152   37.01     559    565.6     23.64
   3153   37.02     551    566.2     23.47
   3154   37.03     566    567.2     23.79
   3155   37.04     561    568.7     23.69
   3156   37.05     565    570.7     23.77
   3157   37.06     575    573.4     23.98
   3158   37.07     581    576.8     24.10
   3159   37.08     592    581.1     24.33
   3160   37.09     587    586.3     24.23
   3161   37.10     594    592.5     24.37
   3162   37.11     598    600.9     24.45
   3163   37.12     593    609.6     24.35
   3164   37.13     618    619.4     24.86
   3165   37.14     629    630.6     25.08
   3166   37.15     639      643     25.28
   3167   37.16     663    656.6     25.75
   3168   37.17     684    671.2     26.15
   3169   37.18     692    686.6     26.31
   3170   37.19     708    702.8     26.61
   3171   37.20     747    719.4     27.33
   3172   37.21     766    736.3     27.68
   3173   37.22     791    753.5     28.12
   3174   37.23     830    771.5     28.81
   3175   37.24     843    791.2     29.03
   3176   37.25     889    814.2     29.82
   3177   37.26     907    843.2     30.12
   3178   37.27     934    881.8     30.56
   3179   37.28    1008    934.1     31.75
   3180   37.29    1060   1005.3     32.56
   3181   37.30    1126   1100.9     33.56
   3182   37.31    1231   1226.8     35.09
   3183   37.32    1365   1388.7     36.95
   3184   37.33    1523   1592.6     39.03
   3185   37.34    1715   1844.4     41.41
   3186   37.35    1958   2150.8     44.25
   3187   37.36    2310     2520     48.06
   3188   37.37    2786   2958.8     52.78
   3189   37.38    3333   3464.6     57.73
   3190   37.39    3963   3995.8     62.95
   3191   37.40    4621   4432.2     67.98
   3192   37.41    4799   4591.5     69.27
   3193   37.42    4631   4381.4     68.05
   3194   37.43    4139   3914.1     64.34
   3195   37.44    3525   3375.2     59.37
   3196   37.45    2893   2873.6     53.79
   3197   37.46    2390   2442.6     48.89
   3198   37.47    2018   2081.6     44.92
   3199   37.48    1739   1783.1     41.70
   3200   37.49    1524   1539.1     39.04
   3201   37.50    1338   1343.5     36.58
   3202   37.51    1215   1190.4     34.86
   3203   37.52    1118   1074.2     33.44
   3204   37.53    1052    989.8     32.43
   3205   37.54     987      932     31.42
   3206   37.55     961    896.4     31.00
   3207   37.56     942      879     30.69
   3208   37.57     916    876.9     30.27
   3209   37.58     913    886.9     30.22
   3210   37.59     923    909.6     30.38
   3211   37.60     925    943.4     30.41
   3212   37.61     979    988.7     31.29
   3213   37.62    1020   1046.3     31.94
   3214   37.63    1102   1117.3     33.20
   3215   37.64    1208   1200.1     34.76
   3216   37.65    1272   1284.6     35.67
   3217   37.66    1371   1345.5     37.03
   3218   37.67    1395   1351.2     37.35
   3219   37.68    1343   1291.4     36.65
   3220   37.69    1219   1191.3     34.91
   3221   37.70    1091   1084.2     33.03
   3222   37.71     987    986.6     31.42
   3223   37.72     888    902.8     29.80
   3224   37.73     801    831.2     28.30
   3225   37.74     756    772.3     27.50
   3226   37.75     721    723.6     26.85
   3227   37.76     694    683.8     26.34
   3228   37.77     651    651.7     25.51
   3229   37.78     623    626.4     24.96
   3230   37.79     602    606.6     24.54
   3231   37.80     584    591.3     24.17
   3232   37.81     575    579.5     23.98
   3233   37.82     575    570.5     23.98
   3234   37.83     549    563.6     23.43
   3235   37.84     548    558.2     23.41
   3236   37.85     531    553.8     23.04
   3237   37.86     542    550.3     23.28
   3238   37.87     545    547.4     23.35
   3239   37.88     538      545     23.19
   3240   37.89     520      543     22.80
   3241   37.90     524    541.3     22.89
   3242   37.91     526    539.9     22.93
   3243   37.92     523    538.7     22.87
   3244   37.93     516    537.8     22.72
   3245   37.94     515    536.3     22.69
   3246   37.95     521      536     22.83
   3247   37.96     519    536.1     22.78
   3248   37.97     511    536.6     22.61
   3249   37.98     517    537.5     22.74
   3250   37.99     521    538.8     22.83
   3251   38.00     519    540.7     22.78
   3252   38.01     522    543.1     22.85
   3253   38.02     533      546     23.09
   3254   38.03     523    549.5     22.87
   3255   38.04     530    553.5     23.02
   3256   38.05     530    558.1     23.02
   3257   38.06     539      563     23.22
   3258   38.07     531    567.3     23.04
   3259   38.08     533    572.6     23.09
   3260   38.09     547    577.9     23.39
   3261   38.10     550    582.8     23.45
   3262   38.11     566      587     23.79
   3263   38.12     562    590.1     23.71
   3264   38.13     554      592     23.54
   3265   38.14     552    592.4     23.49
   3266   38.15     567    591.2     23.81
   3267   38.16     573    589.6     23.94
   3268   38.17     570      586     23.87
   3269   38.18     567    581.4     23.81
   3270   38.19     560    576.4     23.66
   3271   38.20     562    571.1     23.71
   3272   38.21     551    565.9     23.47
   3273   38.22     554    560.8     23.54
   3274   38.23     541    556.1     23.26
   3275   38.24     535    551.9     23.13
   3276   38.25     533    548.2     23.09
   3277   38.26     532    545.1     23.07
   3278   38.27     531    542.5     23.04
   3279   38.28     520    540.5     22.80
   3280   38.29     538      539     23.19
   3281   38.30     519      538     22.78
   3282   38.31     525    537.4     22.91
   3283   38.32     522    537.3     22.85
   3284   38.33     529    537.6     23.00
   3285   38.34     537    538.1     23.17
   3286   38.35     536      539     23.15
   3287   38.36     541    540.2     23.26
   3288   38.37     537    541.8     23.17
   3289   38.38     540    543.6     23.24
   3290   38.39     549    545.8     23.43
   3291   38.40     548    548.3     23.41
   3292   38.41     553    551.3     23.52
   3293   38.42     544    554.8     23.32
   3294   38.43     550    558.9     23.45
   3295   38.44     556    563.6     23.58
   3296   38.45     566    569.2     23.79
   3297   38.46     576    575.7     24.00
   3298   38.47     581    583.4     24.10
   3299   38.48     616    591.7     24.82
   3300   38.49     645    603.7     25.40
   3301   38.50     641    617.1     25.32
   3302   38.51     661    633.7     25.71
   3303   38.52     674    654.2     25.96
   3304   38.53     718    680.1     26.80
   3305   38.54     747    713.1     27.33
   3306   38.55     803    754.1     28.34
   3307   38.56     819    807.7     28.62
   3308   38.57     890    875.5     29.83
   3309   38.58     946    960.6     30.76
   3310   38.59    1037   1065.9     32.20
   3311   38.60    1147   1194.6     33.87
   3312   38.61    1258     1349     35.47
   3313   38.62    1408   1534.8     37.52
   3314   38.63    1639   1755.7     40.48
   3315   38.64    1887   2016.5     43.44
   3316   38.65    2206   2319.6     46.97
   3317   38.66    2623   2652.5     51.22
   3318   38.67    3017   2965.9     54.93
   3319   38.68    3266   3159.9     57.15
   3320   38.69    3274     3138     57.22
   3321   38.70    3024   2906.9     54.99
   3322   38.71    2638   2572.5     51.36
   3323   38.72    2246   2230.6     47.39
   3324   38.73    1889   1924.5     43.46
   3325   38.74    1590   1662.9     39.87
   3326   38.75    1393     1443     37.32
   3327   38.76    1225   1259.6     35.00
   3328   38.77    1098   1108.2     33.14
   3329   38.78     973      985     31.19
   3330   38.79     905    886.4     30.08
   3331   38.80     833    808.9     28.86
   3332   38.81     776    748.9     27.86
   3333   38.82     734    703.3     27.09
   3334   38.83     702    668.9     26.50
   3335   38.84     675    643.1     25.98
   3336   38.85     662    623.7     25.73
   3337   38.86     633    609.1     25.16
   3338   38.87     633    597.8     25.16
   3339   38.88     611      589     24.72
   3340   38.89     606    582.1     24.62
   3341   38.90     575    576.4     23.98
   3342   38.91     579    571.7     24.06
   3343   38.92     555    567.8     23.56
   3344   38.93     558    564.5     23.62
   3345   38.94     568    561.7     23.83
   3346   38.95     542    559.4     23.28
   3347   38.96     555    557.5     23.56
   3348   38.97     548    555.9     23.41
   3349   38.98     557    554.6     23.60
   3350   38.99     560    553.6     23.66
   3351   39.00     549    552.9     23.43
   3352   39.01     540    552.4     23.24
   3353   39.02     539    552.1     23.22
   3354   39.03     555    552.1     23.56
   3355   39.04     532    552.3     23.07
   3356   39.05     542    552.7     23.28
   3357   39.06     546    554.4     23.37
   3358   39.07     543    554.3     23.30
   3359   39.08     556    555.5     23.58
   3360   39.09     556      558     23.58
   3361   39.10     559    559.7     23.64
   3362   39.11     572    561.7     23.92
   3363   39.12     555    564.1     23.56
   3364   39.13     562    566.7     23.71
   3365   39.14     571    569.7     23.90
   3366   39.15     581    573.2     24.10
   3367   39.16     590    577.1     24.29
   3368   39.17     607    581.5     24.64
   3369   39.18     604    586.6     24.58
   3370   39.19     610    592.4     24.70
   3371   39.20     624    599.1     24.98
   3372   39.21     651    606.9     25.51
   3373   39.22     665    616.1     25.79
   3374   39.23     688    627.1     26.23
   3375   39.24     687    640.6     26.21
   3376   39.25     725    657.5     26.93
   3377   39.26     756    679.2     27.50
   3378   39.27     783    707.2     27.98
   3379   39.28     827    744.1     28.76
   3380   39.29     878    792.7     29.63
   3381   39.30     933    856.6     30.55
   3382   39.31    1001    939.2     31.64
   3383   39.32    1099   1046.9     33.15
   3384   39.33    1214     1184     34.84
   3385   39.34    1310   1355.3     36.19
   3386   39.35    1491   1566.1     38.61
   3387   39.36    1673   1821.8     40.90
   3388   39.37    1946   2128.2     44.11
   3389   39.38    2300   2492.5     47.96
   3390   39.39    2732   2922.3     52.27
   3391   39.40    3254   3415.7     57.04
   3392   39.41    3954   3945.3     62.88
   3393   39.42    4501   4419.9     67.09
   3394   39.43    4876   4678.8     69.83
   3395   39.44    4844   4595.7     69.60
   3396   39.45    4452   4214.1     66.72
   3397   39.46    3821   3701.4     61.81
   3398   39.47    3253   3190.1     57.04
   3399   39.48    2699   2735.7     51.95
   3400   39.49    2269   2347.8     47.63
   3401   39.50    1973   2021.6     44.42
   3402   39.51    1725   1750.2     41.53
   3403   39.52    1539   1527.5     39.23
   3404   39.53    1396   1349.2     37.36
   3405   39.54    1290   1210.9     35.92
   3406   39.55    1194     1109     34.55
   3407   39.56    1141   1039.7     33.78
   3408   39.57    1076   1000.8     32.80
   3409   39.58    1050    987.2     32.40
   3410   39.59    1065    997.7     32.63
   3411   39.60    1077   1030.5     32.82
   3412   39.61    1110   1084.7     33.32
   3413   39.62    1153   1160.1     33.96
   3414   39.63    1244   1257.6     35.27
   3415   39.64    1358   1377.6     36.85
   3416   39.65    1500   1517.6     38.73
   3417   39.66    1666   1663.5     40.82
   3418   39.67    1822   1780.1     42.68
   3419   39.68    1907   1817.9     43.67
   3420   39.69    1838   1752.8     42.87
   3421   39.70    1666   1614.1     40.82
   3422   39.71    1465   1452.2     38.28
   3423   39.72    1298   1298.6     36.03
   3424   39.73    1138   1165.4     33.73
   3425   39.74    1025   1051.4     32.02
   3426   39.75     937    955.6     30.61
   3427   39.76     862    875.7     29.36
   3428   39.77     818      810     28.60
   3429   39.78     770    756.9     27.75
   3430   39.79     736    714.8     27.13
   3431   39.80     726    682.4     26.94
   3432   39.81     688    658.1     26.23
   3433   39.82     677    640.6     26.02
   3434   39.83     652    628.8     25.53
   3435   39.84     649    621.7     25.48
   3436   39.85     632    618.4     25.14
   3437   39.86     637    618.3     25.24
   3438   39.87     617    622.9     24.84
   3439   39.88     638    627.8     25.26
   3440   39.89     623    634.7     24.96
   3441   39.90     617    643.1     24.84
   3442   39.91     638    652.8     25.26
   3443   39.92     641    662.3     25.32
   3444   39.93     644    673.2     25.38
   3445   39.94     641    683.9     25.32
   3446   39.95     664    693.7     25.77
   3447   39.96     676    701.8     26.00
   3448   39.97     690    707.6     26.27
   3449   39.98     685    710.4     26.17
   3450   39.99     684    709.9     26.15
   3451   40.00     684    706.1     26.15
   3452   40.01     686    699.4     26.19
   3453   40.02     686    690.3     26.19
   3454   40.03     682    679.6     26.12
   3455   40.04     679      668     26.06
   3456   40.05     668    656.3     25.85
   3457   40.06     659    644.8     25.67
   3458   40.07     653    634.1     25.55
   3459   40.08     632    624.4     25.14
   3460   40.09     621    615.9     24.92
   3461   40.10     613    608.6     24.76
   3462   40.11     596    602.7     24.41
   3463   40.12     592    598.1     24.33
   3464   40.13     574    594.5     23.96
   3465   40.14     586    591.9     24.21
   3466   40.15     585      590     24.19
   3467   40.16     590    588.8     24.29
   3468   40.17     577    588.2     24.02
   3469   40.18     584      588     24.17
   3470   40.19     585    588.3     24.19
   3471   40.20     580    588.9     24.08
   3472   40.21     580    589.9     24.08
   3473   40.22     597    591.1     24.43
   3474   40.23     581    592.3     24.10
   3475   40.24     589    593.4     24.27
   3476   40.25     593    594.2     24.35
   3477   40.26     597    594.4     24.43
   3478   40.27     600    593.8     24.49
   3479   40.28     602    592.4     24.54
   3480   40.29     586    590.2     24.21
   3481   40.30     585    587.3     24.19
   3482   40.31     590    583.9     24.29
   3483   40.32     586    580.2     24.21
   3484   40.33     590    576.5     24.29
   3485   40.34     579    572.8     24.06
   3486   40.35     571    569.5     23.90
   3487   40.36     568    566.5     23.83
   3488   40.37     577    564.1     24.02
   3489   40.38     564    561.3     23.75
   3490   40.39     560    560.1     23.66
   3491   40.40     569    559.6     23.85
   3492   40.41     575      559     23.98
   3493   40.42     576    560.1     24.00
   3494   40.43     580    562.2     24.08
   3495   40.44     579    564.3     24.06
   3496   40.45     586    568.6     24.21
   3497   40.46     592    574.5     24.33
   3498   40.47     601    582.3     24.52
   3499   40.48     605    592.7     24.60
   3500   40.49     645    606.5     25.40
   3501   40.50     649    624.8     25.48
   3502   40.51     676    649.1     26.00
   3503   40.52     707    681.1     26.59
   3504   40.53     758    722.7     27.53
   3505   40.54     772    776.2     27.78
   3506   40.55     839    843.8     28.97
   3507   40.56     896      928     29.93
   3508   40.57     988   1031.1     31.43
   3509   40.58    1101   1155.7     33.18
   3510   40.59    1222   1303.4     34.96
   3511   40.60    1392   1479.7     37.31
   3512   40.61    1613   1686.8     40.16
   3513   40.62    1870   1924.6     43.24
   3514   40.63    2225   2181.4     47.17
   3515   40.64    2548   2416.7     50.48
   3516   40.65    2731   2557.1     52.26
   3517   40.66    2714   2537.3     52.10
   3518   40.67    2507   2364.8     50.07
   3519   40.68    2185   2116.2     46.74
   3520   40.69    1867   1858.7     43.21
   3521   40.70    1572   1626.4     39.65
   3522   40.71    1366   1426.2     36.96
   3523   40.72    1179   1256.5     34.34
   3524   40.73    1064   1113.8     32.62
   3525   40.74     943    994.8     30.71
   3526   40.75     856    896.9     29.26
   3527   40.76     810    817.4     28.46
   3528   40.77     756    753.9     27.50
   3529   40.78     703    704.1     26.51
   3530   40.79     678    665.6     26.04
   3531   40.80     654    636.1     25.57
   3532   40.81     640    613.7     25.30
   3533   40.82     610    596.7     24.70
   3534   40.83     596    583.8     24.41
   3535   40.84     587    573.9     24.23
   3536   40.85     567    567.2     23.81
   3537   40.86     563    560.1     23.73
   3538   40.87     560    555.2     23.66
   3539   40.88     557    551.2     23.60
   3540   40.89     548    547.9     23.41
   3541   40.90     538    545.1     23.19
   3542   40.91     531    542.7     23.04
   3543   40.92     525    540.7     22.91
   3544   40.93     539    539.1     23.22
   3545   40.94     538    537.7     23.19
   3546   40.95     529    536.6     23.00
   3547   40.96     521    535.7     22.83
   3548   40.97     530    535.1     23.02
   3549   40.98     523    534.6     22.87
   3550   40.99     522    534.4     22.85
   3551   41.00     514    534.4     22.67
   3552   41.01     534    534.7     23.11
   3553   41.02     525    535.1     22.91
   3554   41.03     528    535.9     22.98
   3555   41.04     536    536.9     23.15
   3556   41.05     532    538.2     23.07
   3557   41.06     553    540.9     23.52
   3558   41.07     546      543     23.37
   3559   41.08     543    545.6     23.30
   3560   41.09     547    548.7     23.39
   3561   41.10     557    553.4     23.60
   3562   41.11     572    557.7     23.92
   3563   41.12     579    562.7     24.06
   3564   41.13     577    568.5     24.02
   3565   41.14     579    575.1     24.06
   3566   41.15     605    582.6     24.60
   3567   41.16     607    591.3     24.64
   3568   41.17     637    601.3     25.24
   3569   41.18     645    614.9     25.40
   3570   41.19     649    627.6     25.48
   3571   41.20     666    643.9     25.81
   3572   41.21     700    663.8     26.46
   3573   41.22     733    688.1     27.07
   3574   41.23     758    718.5     27.53
   3575   41.24     796    756.6     28.21
   3576   41.25     844    804.6     29.05
   3577   41.26     877      865     29.61
   3578   41.27     951    940.2     30.84
   3579   41.28    1017     1033     31.89
   3580   41.29    1105   1146.1     33.24
   3581   41.30    1228   1282.3     35.04
   3582   41.31    1372   1444.9     37.04
   3583   41.32    1548   1637.5     39.34
   3584   41.33    1803   1863.3     42.46
   3585   41.34    2064   2120.8     45.43
   3586   41.35    2380   2393.3     48.79
   3587   41.36    2690   2632.3     51.87
   3588   41.37    2832   2758.4     53.22
   3589   41.38    2794     2713     52.86
   3590   41.39    2563   2518.5     50.63
   3591   41.40    2245   2255.4     47.38
   3592   41.41    1950   1990.5     44.16
   3593   41.42    1667   1752.7     40.83
   3594   41.43    1464   1548.4     38.26
   3595   41.44    1304   1375.6     36.11
   3596   41.45    1187   1230.4     34.45
   3597   41.46    1083   1109.5     32.91
   3598   41.47     997   1010.2     31.58
   3599   41.48     940      930     30.66
   3600   41.49     879    866.3     29.65
   3601   41.50     826    816.7     28.74
   3602   41.51     818    778.6     28.60
   3603   41.52     769    749.7     27.73
   3604   41.53     755    727.7     27.48
   3605   41.54     738    710.4     27.17
   3606   41.55     702    696.1     26.50
   3607   41.56     701    683.5     26.48
   3608   41.57     693    671.7     26.32
   3609   41.58     675      660     25.98
   3610   41.59     674    648.2     25.96
   3611   41.60     647    636.3     25.44
   3612   41.61     623    624.5     24.96
   3613   41.62     616    612.9     24.82
   3614   41.63     602    600.7     24.54
   3615   41.64     592    590.2     24.33
   3616   41.65     589    580.4     24.27
   3617   41.66     587    571.3     24.23
   3618   41.67     568    563.1     23.83
   3619   41.68     570    555.7     23.87
   3620   41.69     559    549.2     23.64
   3621   41.70     551    544.5     23.47
   3622   41.71     555    539.6     23.56
   3623   41.72     542    535.3     23.28
   3624   41.73     536    531.7     23.15
   3625   41.74     526    528.6     22.93
   3626   41.75     533      526     23.09
   3627   41.76     530    523.8     23.02
   3628   41.77     529    521.9     23.00
   3629   41.78     524    520.4     22.89
   3630   41.79     525      519     22.91
   3631   41.80     515    517.9     22.69
   3632   41.81     505    516.9     22.47
   3633   41.82     508    516.1     22.54
   3634   41.83     513    514.5     22.65
   3635   41.84     508      514     22.54
   3636   41.85     499    513.7     22.34
   3637   41.86     498    513.4     22.32
   3638   41.87     506    513.4     22.49
   3639   41.88     507    513.5     22.52
   3640   41.89     490    513.8     22.14
   3641   41.90     505    514.3     22.47
   3642   41.91     493    515.1     22.20
   3643   41.92     501    516.1     22.38
   3644   41.93     507    517.4     22.52
   3645   41.94     501    519.1     22.38
   3646   41.95     509    519.1     22.56
   3647   41.96     512    521.4     22.63
   3648   41.97     496    524.1     22.27
   3649   41.98     510      527     22.58
   3650   41.99     524    530.1     22.89
   3651   42.00     515    533.4     22.69
   3652   42.01     518    536.7     22.76
   3653   42.02     517      540     22.74
   3654   42.03     520      544     22.80
   3655   42.04     525    546.7     22.91
   3656   42.05     528    548.8     22.98
   3657   42.06     540    550.2     23.24
   3658   42.07     539    550.8     23.22
   3659   42.08     527    550.4     22.96
   3660   42.09     528    549.3     22.98
   3661   42.10     526    547.5     22.93
   3662   42.11     533    545.2     23.09
   3663   42.12     530    542.5     23.02
   3664   42.13     525    539.7     22.91
   3665   42.14     533    536.8     23.09
   3666   42.15     538    535.2     23.19
   3667   42.16     519    535.7     22.78
   3668   42.17     515    533.6     22.69
   3669   42.18     533    531.8     23.09
   3670   42.19     510    530.3     22.58
   3671   42.20     521    529.3     22.83
   3672   42.21     517    527.7     22.74
   3673   42.22     517    527.4     22.74
   3674   42.23     532    527.5     23.07
   3675   42.24     521      528     22.83
   3676   42.25     528    528.9     22.98
   3677   42.26     529    530.2     23.00
   3678   42.27     525    531.8     22.91
   3679   42.28     541    533.8     23.26
   3680   42.29     550    536.3     23.45
   3681   42.30     538    539.3     23.19
   3682   42.31     555    542.9     23.56
   3683   42.32     574    547.3     23.96
   3684   42.33     574    552.5     23.96
   3685   42.34     581    558.9     24.10
   3686   42.35     600    566.8     24.49
   3687   42.36     594    576.7     24.37
   3688   42.37     619      589     24.88
   3689   42.38     637    604.6     25.24
   3690   42.39     638    624.4     25.26
   3691   42.40     678    649.5     26.04
   3692   42.41     707    681.2     26.59
   3693   42.42     749      721     27.37
   3694   42.43     784    770.5     28.00
   3695   42.44     826    830.1     28.74
   3696   42.45     882    903.6     29.70
   3697   42.46     950    992.4     30.82
   3698   42.47    1054   1097.1     32.47
   3699   42.48    1148   1218.3     33.88
   3700   42.49    1277     1359     35.74
   3701   42.50    1451   1521.3     38.09
   3702   42.51    1659   1705.6     40.73
   3703   42.52    1880     1906     43.36
   3704   42.53    2167   2099.6     46.55
   3705   42.54    2336     2239     48.33
   3706   42.55    2389   2269.2     48.88
   3707   42.56    2261   2173.6     47.55
   3708   42.57    2053   1993.9     45.31
   3709   42.58    1793   1787.3     42.34
   3710   42.59    1574     1590     39.67
   3711   42.60    1353   1414.7     36.78
   3712   42.61    1211   1263.3     34.80
   3713   42.62    1120   1133.9     33.47
   3714   42.63    1029   1024.1     32.08
   3715   42.64     928      932     30.46
   3716   42.65     869    855.5     29.48
   3717   42.66     812      793     28.50
   3718   42.67     765    742.6     27.66
   3719   42.68     738    702.5     27.17
   3720   42.69     718    670.8     26.80
   3721   42.70     690      646     26.27
   3722   42.71     669    627.4     25.87
   3723   42.72     650      612     25.50
   3724   42.73     630    599.6     25.10
   3725   42.74     614    589.5     24.78
   3726   42.75     596    581.2     24.41
   3727   42.76     586    574.3     24.21
   3728   42.77     587    568.3     24.23
   3729   42.78     578    563.3     24.04
   3730   42.79     562      559     23.71
   3731   42.80     564    555.3     23.75
   3732   42.81     554    552.1     23.54
   3733   42.82     550    550.5     23.45
   3734   42.83     558    548.3     23.62
   3735   42.84     540    546.6     23.24
   3736   42.85     543    545.3     23.30
   3737   42.86     547    544.3     23.39
   3738   42.87     550    542.7     23.45
   3739   42.88     527    542.5     22.96
   3740   42.89     542    542.6     23.28
   3741   42.90     545      543     23.35
   3742   42.91     534    543.7     23.11
   3743   42.92     545    544.7     23.35
   3744   42.93     555      546     23.56
   3745   42.94     549    547.6     23.43
   3746   42.95     568    548.6     23.83
   3747   42.96     555      551     23.56
   3748   42.97     548    553.8     23.41
   3749   42.98     566      557     23.79
   3750   42.99     577    560.8     24.02
   3751   43.00     604    565.2     24.58
   3752   43.01     593    569.5     24.35
   3753   43.02     596    575.7     24.41
   3754   43.03     624    584.3     24.98
   3755   43.04     643    593.6     25.36
   3756   43.05     649    605.3     25.48
   3757   43.06     658    620.2     25.65
   3758   43.07     698    638.4     26.42
   3759   43.08     722    663.3     26.87
   3760   43.09     759    695.4     27.55
   3761   43.10     786    738.1     28.04
   3762   43.11     842    791.5     29.02
   3763   43.12     886    859.1     29.77
   3764   43.13     961    943.8     31.00
   3765   43.14    1030   1048.2     32.09
   3766   43.15    1140   1175.1     33.76
   3767   43.16    1285   1327.3     35.85
   3768   43.17    1407   1508.1     37.51
   3769   43.18    1622     1721     40.27
   3770   43.19    1867   1970.1     43.21
   3771   43.20    2166   2257.7     46.54
   3772   43.21    2531   2577.8     50.31
   3773   43.22    2964   2902.6     54.44
   3774   43.23    3308   3165.7     57.52
   3775   43.24    3459   3276.7     58.81
   3776   43.25    3356   3186.3     57.93
   3777   43.26    3032   2938.3     55.06
   3778   43.27    2641   2624.5     51.39
   3779   43.28    2250   2313.7     47.43
   3780   43.29    1957     2035     44.24
   3781   43.30    1689   1794.6     41.10
   3782   43.31    1516     1590     38.94
   3783   43.32    1352   1417.6     36.77
   3784   43.33    1231   1274.1     35.09
   3785   43.34    1136   1156.9     33.70
   3786   43.35    1059   1063.9     32.54
   3787   43.36    1013    993.1     31.83
   3788   43.37     978    942.8     31.27
   3789   43.38     943    910.8     30.71
   3790   43.39     933    895.4     30.55
   3791   43.40     928    895.2     30.46
   3792   43.41     934      910     30.56
   3793   43.42     945    936.9     30.74
   3794   43.43    1017      976     31.89
   3795   43.44    1048   1024.7     32.37
   3796   43.45    1116   1075.8     33.41
   3797   43.46    1169   1114.6     34.19
   3798   43.47    1170   1122.7     34.21
   3799   43.48    1150   1091.8     33.91
   3800   43.49    1069   1032.2     32.70
   3801   43.50     972      962     31.18
   3802   43.51     875    894.1     29.58
   3803   43.52     814    833.6     28.53
   3804   43.53     762    781.4     27.60
   3805   43.54     713    736.9     26.70
   3806   43.55     695    699.2     26.36
   3807   43.56     646    667.6     25.42
   3808   43.57     629    641.4     25.08
   3809   43.58     622      620     24.94
   3810   43.59     602    602.9     24.54
   3811   43.60     586    590.6     24.21
   3812   43.61     586    580.4     24.21
   3813   43.62     571    572.9     23.90
   3814   43.63     566    567.5     23.79
   3815   43.64     567      564     23.81
   3816   43.65     565    561.8     23.77
   3817   43.66     561    560.6     23.69
   3818   43.67     555    560.3     23.56
   3819   43.68     547    560.4     23.39
   3820   43.69     556    560.9     23.58
   3821   43.70     534    561.5     23.11
   3822   43.71     546      562     23.37
   3823   43.72     539    563.3     23.22
   3824   43.73     555    563.1     23.56
   3825   43.74     549    562.4     23.43
   3826   43.75     553    561.1     23.52
   3827   43.76     555    559.3     23.56
   3828   43.77     554    557.1     23.54
   3829   43.78     558    554.5     23.62
   3830   43.79     554    551.7     23.54
   3831   43.80     557      549     23.60
   3832   43.81     548    546.2     23.41
   3833   43.82     550    542.7     23.45
   3834   43.83     545    540.4     23.35
   3835   43.84     538    538.5     23.19
   3836   43.85     550    535.9     23.45
   3837   43.86     541    534.8     23.26
   3838   43.87     535      534     23.13
   3839   43.88     549    533.7     23.43
   3840   43.89     542    533.9     23.28
   3841   43.90     537    534.5     23.17
   3842   43.91     544    535.6     23.32
   3843   43.92     543    537.2     23.30
   3844   43.93     545    539.2     23.35
   3845   43.94     545    541.6     23.35
   3846   43.95     542    544.4     23.28
   3847   43.96     551    547.6     23.47
   3848   43.97     557    551.1     23.60
   3849   43.98     565    554.9     23.77
   3850   43.99     567    557.8     23.81
   3851   44.00     568    561.8     23.83
   3852   44.01     562    565.7     23.71
   3853   44.02     587    569.5     24.23
   3854   44.03     585      574     24.19
   3855   44.04     596    577.1     24.41
   3856   44.05     587    579.9     24.23
   3857   44.06     598    582.2     24.45
   3858   44.07     598    584.2     24.45
   3859   44.08     605    585.1     24.60
   3860   44.09     624    587.1     24.98
   3861   44.10     621    589.3     24.92
   3862   44.11     621    591.9     24.92
   3863   44.12     620    595.2     24.90
   3864   44.13     639    599.4     25.28
   3865   44.14     659    604.8     25.67
   3866   44.15     674    611.6     25.96
   3867   44.16     674    620.5     25.96
   3868   44.17     713    631.9     26.70
   3869   44.18     728    646.7     26.98
   3870   44.19     756      666     27.50
   3871   44.20     780    691.2     27.93
   3872   44.21     831    724.1     28.83
   3873   44.22     871    767.1     29.51
   3874   44.23     937    821.7     30.61
   3875   44.24     972    893.1     31.18
   3876   44.25    1064    983.6     32.62
   3877   44.26    1146   1097.1     33.85
   3878   44.27    1261   1237.1     35.51
   3879   44.28    1391   1407.5     37.30
   3880   44.29    1559     1612     39.48
   3881   44.30    1781   1854.9     42.20
   3882   44.31    2011   2140.9     44.84
   3883   44.32    2306   2475.2     48.02
   3884   44.33    2725   2860.1     52.20
   3885   44.34    3217   3299.3     56.72
   3886   44.35    3785   3767.7     61.52
   3887   44.36    4355   4198.7     65.99
   3888   44.37    4712   4474.6     68.64
   3889   44.38    4686   4483.5     68.45
   3890   44.39    4399   4220.2     66.32
   3891   44.40    3818   3791.5     61.79
   3892   44.41    3269   3319.8     57.18
   3893   44.42    2756   2875.7     52.50
   3894   44.43    2324   2483.5     48.21
   3895   44.44    2002   2145.5     44.74
   3896   44.45    1748   1856.7     41.81
   3897   44.46    1535   1611.7     39.18
   3898   44.47    1372   1405.6     37.04
   3899   44.48    1244   1234.2     35.27
   3900   44.49    1141   1093.5     33.78
   3901   44.50    1028    979.7     32.06
   3902   44.51     976    888.9     31.24
   3903   44.52     901    817.3     30.02
   3904   44.53     838    761.6     28.95
   3905   44.54     808    718.4     28.43
   3906   44.55     756    686.2     27.50
   3907   44.56     738    660.5     27.17
   3908   44.57     714    640.5     26.72
   3909   44.58     692    624.7     26.31
   3910   44.59     661    612.2     25.71
   3911   44.60     649      602     25.48
   3912   44.61     630    593.6     25.10
   3913   44.62     605    586.6     24.60
   3914   44.63     612    580.7     24.74
   3915   44.64     601    575.6     24.52
   3916   44.65     597    571.3     24.43
   3917   44.66     605    567.7     24.60
   3918   44.67     583    564.5     24.15
   3919   44.68     596    561.9     24.41
   3920   44.69     577    559.8     24.02
   3921   44.70     568      558     23.83
   3922   44.71     561    556.7     23.69
   3923   44.72     574    555.8     23.96
   3924   44.73     575    555.2     23.98
   3925   44.74     574    556.3     23.96
   3926   44.75     577    556.7     24.02
   3927   44.76     588    557.6     24.25
   3928   44.77     578    558.9     24.04
   3929   44.78     578    560.7     24.04
   3930   44.79     573    563.1     23.94
   3931   44.80     597    566.2     24.43
   3932   44.81     607    570.1     24.64
   3933   44.82     605      575     24.60
   3934   44.83     607    582.1     24.64
   3935   44.84     616    589.9     24.82
   3936   44.85     639    600.6     25.28
   3937   44.86     648    613.1     25.46
   3938   44.87     673    628.9     25.94
   3939   44.88     697    649.3     26.40
   3940   44.89     720    675.4     26.83
   3941   44.90     750    708.6     27.39
   3942   44.91     788    750.7     28.07
   3943   44.92     825    803.5     28.72
   3944   44.93     880    868.9     29.66
   3945   44.94     944    948.9     30.72
   3946   44.95    1032   1045.7     32.12
   3947   44.96    1124   1161.2     33.53
   3948   44.97    1236   1297.9     35.16
   3949   44.98    1379   1458.3     37.13
   3950   44.99    1566   1645.5     39.57
   3951   45.00    1758   1862.2     41.93
   3952   45.01    2060   2107.1     45.39
   3953   45.02    2407   2367.8     49.06
   3954   45.03    2669   2607.6     51.66
   3955   45.04    2879   2762.6     53.66
   3956   45.05    2896   2772.5     53.81
   3957   45.06    2710   2632.4     52.06
   3958   45.07    2399   2399.9     48.98
   3959   45.08    2097   2141.9     45.79
   3960   45.09    1820   1898.5     42.66
   3961   45.10    1576     1684     39.70
   3962   45.11    1422   1500.2     37.71
   3963   45.12    1284     1345     35.83
   3964   45.13    1149   1215.4     33.90
   3965   45.14    1068   1109.3     32.68
   3966   45.15    1002   1024.6     31.65
   3967   45.16     950    958.5     30.82
   3968   45.17     933    912.1     30.55
   3969   45.18     888    882.4     29.80
   3970   45.19     886      868     29.77
   3971   45.20     877    867.6     29.61
   3972   45.21     894    880.2     29.90
   3973   45.22     912      905     30.20
   3974   45.23     940    940.6     30.66
   3975   45.24     982    983.8     31.34
   3976   45.25    1066   1026.6     32.65
   3977   45.26    1104   1055.1     33.23
   3978   45.27    1083   1054.7     32.91
   3979   45.28    1046   1021.3     32.34
   3980   45.29     981    965.7     31.32
   3981   45.30     891      903     29.85
   3982   45.31     811    842.8     28.48
   3983   45.32     772    789.1     27.78
   3984   45.33     713    742.4     26.70
   3985   45.34     670    702.3     25.88
   3986   45.35     643    667.9     25.36
   3987   45.36     620    638.7     24.90
   3988   45.37     589      614     24.27
   3989   45.38     575    593.5     23.98
   3990   45.39     556    576.5     23.58
   3991   45.40     551    562.6     23.47
   3992   45.41     538    551.4     23.19
   3993   45.42     540    542.3     23.24
   3994   45.43     535      536     23.13
   3995   45.44     527    530.2     22.96
   3996   45.45     515    524.5     22.69
   3997   45.46     496    520.7     22.27
   3998   45.47     510    517.5     22.58
   3999   45.48     488    514.9     22.09
   4000   45.49     490    512.6     22.14
   4001   45.50     496    510.6     22.27
   4002   45.51     482    508.8     21.95
   4003   45.52     478    507.3     21.86
   4004   45.53     473    505.8     21.75
   4005   45.54     477    504.5     21.84
   4006   45.55     482    503.4     21.95
   4007   45.56     490    502.3     22.14
   4008   45.57     483    501.3     21.98
   4009   45.58     476    500.3     21.82
   4010   45.59     470    499.4     21.68
   4011   45.60     463    498.6     21.52
   4012   45.61     459    497.9     21.42
   4013   45.62     475    497.1     21.79
   4014   45.63     466    496.5     21.59
   4015   45.64     466    495.8     21.59
   4016   45.65     459    495.2     21.42
   4017   45.66     471    494.7     21.70
   4018   45.67     458    494.2     21.40
   4019   45.68     460    493.7     21.45
   4020   45.69     471    492.2     21.70
   4021   45.70     460    491.8     21.45
   4022   45.71     456    491.4     21.35
   4023   45.72     446    490.1     21.12
   4024   45.73     459    489.8     21.42
   4025   45.74     445    489.4     21.10
   4026   45.75     459    489.1     21.42
   4027   45.76     453    488.8     21.28
   4028   45.77     463    488.6     21.52
   4029   45.78     458    488.3     21.40
   4030   45.79     449    488.1     21.19
   4031   45.80     455    487.8     21.33
   4032   45.81     454    487.6     21.31
   4033   45.82     452    487.4     21.26
   4034   45.83     459    487.2     21.42
   4035   45.84     449      488     21.19
   4036   45.85     444    487.9     21.07
   4037   45.86     455    487.8     21.33
   4038   45.87     449    487.8     21.19
   4039   45.88     440    487.7     20.98
   4040   45.89     449    487.7     21.19
   4041   45.90     456    487.8     21.35
   4042   45.91     457    487.9     21.38
   4043   45.92     452      488     21.26
   4044   45.93     441    488.2     21.00
   4045   45.94     442    488.5     21.02
   4046   45.95     459      489     21.42
   4047   45.96     464    489.5     21.54
   4048   45.97     458    490.1     21.40
   4049   45.98     464    490.9     21.54
   4050   45.99     465    490.9     21.56
   4051   46.00     466    492.1     21.59
   4052   46.01     460    493.4     21.45
   4053   46.02     450    494.9     21.21
   4054   46.03     460    497.5     21.45
   4055   46.04     459    499.4     21.42
   4056   46.05     462    501.3     21.49
   4057   46.06     465    503.3     21.56
   4058   46.07     467    504.3     21.61
   4059   46.08     468    506.2     21.63
   4060   46.09     469      508     21.66
   4061   46.10     483    509.5     21.98
   4062   46.11     473    510.7     21.75
   4063   46.12     486    511.4     22.05
   4064   46.13     476    511.6     21.82
   4065   46.14     479    511.3     21.89
   4066   46.15     478    510.6     21.86
   4067   46.16     481    509.4     21.93
   4068   46.17     472    507.9     21.73
   4069   46.18     485    506.2     22.02
   4070   46.19     475    505.4     21.79
   4071   46.20     471    503.5     21.70
   4072   46.21     467    501.7     21.61
   4073   46.22     467      500     21.61
   4074   46.23     475    499.8     21.79
   4075   46.24     457    498.6     21.38
   4076   46.25     462    497.6     21.49
   4077   46.26     478    496.8     21.86
   4078   46.27     466    496.3     21.59
   4079   46.28     464    495.1     21.54
   4080   46.29     476    495.1     21.82
   4081   46.30     476    495.3     21.82
   4082   46.31     471    495.7     21.70
   4083   46.32     469    497.4     21.66
   4084   46.33     462    498.2     21.49
   4085   46.34     470    499.2     21.68
   4086   46.35     472    500.4     21.73
   4087   46.36     478    501.6     21.86
   4088   46.37     474    502.9     21.77
   4089   46.38     474    504.2     21.77
   4090   46.39     469    505.5     21.66
   4091   46.40     472    506.7     21.73
   4092   46.41     477    507.7     21.84
   4093   46.42     484    508.6     22.00
   4094   46.43     494    508.4     22.23
   4095   46.44     492      509     22.18
   4096   46.45     487    509.4     22.07
   4097   46.46     492    509.8     22.18
   4098   46.47     491    510.1     22.16
   4099   46.48     499    510.4     22.34
   4100   46.49     492    509.8     22.18
   4101   46.50     497    510.4     22.29
   4102   46.51     501    511.1     22.38
   4103   46.52     501    513.6     22.38
   4104   46.53     499    515.1     22.34
   4105   46.54     501      517     22.38
   4106   46.55     522    519.3     22.85
   4107   46.56     525    522.2     22.91
   4108   46.57     529    525.8     23.00
   4109   46.58     540    530.2     23.24
   4110   46.59     543    535.6     23.30
   4111   46.60     549    542.4     23.43
   4112   46.61     562    551.9     23.71
   4113   46.62     577    561.3     24.02
   4114   46.63     592    574.9     24.33
   4115   46.64     605      592     24.60
   4116   46.65     630    613.2     25.10
   4117   46.66     638    639.5     25.26
   4118   46.67     666    671.9     25.81
   4119   46.68     699    711.4     26.44
   4120   46.69     731    758.9     27.04
   4121   46.70     791    815.6     28.12
   4122   46.71     840    882.4     28.98
   4123   46.72     905    960.7     30.08
   4124   46.73    1000   1051.9     31.62
   4125   46.74    1114   1157.5     33.38
   4126   46.75    1237   1278.8     35.17
   4127   46.76    1417   1414.8     37.64
   4128   46.77    1571   1558.4     39.64
   4129   46.78    1746   1689.6     41.79
   4130   46.79    1861   1775.5     43.14
   4131   46.80    1854   1785.3     43.06
   4132   46.81    1749   1716.2     41.82
   4133   46.82    1592     1597     39.90
   4134   46.83    1444   1462.7     38.00
   4135   46.84    1272     1336     35.67
   4136   46.85    1162   1225.7     34.09
   4137   46.86    1085   1133.8     32.94
   4138   46.87    1014     1060     31.84
   4139   46.88     974   1003.2     31.21
   4140   46.89     921    962.8     30.35
   4141   46.90     894    937.1     29.90
   4142   46.91     905    928.4     30.08
   4143   46.92     915    935.2     30.25
   4144   46.93     930    958.2     30.50
   4145   46.94     959    995.6     30.97
   4146   46.95    1006   1048.5     31.72
   4147   46.96    1093   1117.1     33.06
   4148   46.97    1192     1201     34.53
   4149   46.98    1296   1296.8     36.00
   4150   46.99    1421   1394.2     37.70
   4151   47.00    1546   1472.1     39.32
   4152   47.01    1571   1503.2     39.64
   4153   47.02    1503   1471.8     38.77
   4154   47.03    1424   1388.3     37.74
   4155   47.04    1258   1279.4     35.47
   4156   47.05    1132     1168     33.65
   4157   47.06    1014   1065.3     31.84
   4158   47.07     907    974.9     30.12
   4159   47.08     829    896.6     28.79
   4160   47.09     786    829.4     28.04
   4161   47.10     736      772     27.13
   4162   47.11     705    723.4     26.55
   4163   47.12     663    682.8     25.75
   4164   47.13     624    649.2     24.98
   4165   47.14     606    621.9     24.62
   4166   47.15     599    600.1     24.47
   4167   47.16     588      583     24.25
   4168   47.17     572    569.9     23.92
   4169   47.18     552    559.1     23.49
   4170   47.19     552      552     23.49
   4171   47.20     528      547     22.98
   4172   47.21     541    543.8     23.26
   4173   47.22     534    542.1     23.11
   4174   47.23     539    541.4     23.22
   4175   47.24     535    541.5     23.13
   4176   47.25     542    542.3     23.28
   4177   47.26     526    543.6     22.93
   4178   47.27     552    545.1     23.49
   4179   47.28     545    546.7     23.35
   4180   47.29     544    548.2     23.32
   4181   47.30     532    549.4     23.07
   4182   47.31     539    552.2     23.22
   4183   47.32     532    552.4     23.07
   4184   47.33     550    551.9     23.45
   4185   47.34     539    550.6     23.22
   4186   47.35     538    548.7     23.19
   4187   47.36     538    546.3     23.19
   4188   47.37     537    543.6     23.17
   4189   47.38     535    540.7     23.13
   4190   47.39     538    537.8     23.19
   4191   47.40     525    535.1     22.91
   4192   47.41     521    532.8     22.83
   4193   47.42     534    530.9     23.11
   4194   47.43     516    529.5     22.72
   4195   47.44     513    528.6     22.65
   4196   47.45     520    528.5     22.80
   4197   47.46     531    528.9     23.04
   4198   47.47     535      530     23.13
   4199   47.48     522    531.7     22.85
   4200   47.49     520    533.9     22.80
   4201   47.50     523    536.7     22.87
   4202   47.51     528    539.8     22.98
   4203   47.52     536    543.2     23.15
   4204   47.53     527    546.7     22.96
   4205   47.54     533    550.2     23.09
   4206   47.55     546    553.6     23.37
   4207   47.56     558    556.5     23.62
   4208   47.57     561      559     23.69
   4209   47.58     560    560.9     23.66
   4210   47.59     570    565.4     23.87
   4211   47.60     571    566.5     23.90
   4212   47.61     573    567.3     23.94
   4213   47.62     585    568.2     24.19
   4214   47.63     589    569.4     24.27
   4215   47.64     593    571.2     24.35
   4216   47.65     606    574.1     24.62
   4217   47.66     623    578.6     24.96
   4218   47.67     628    585.1     25.06
   4219   47.68     633    594.4     25.16
   4220   47.69     654    607.2     25.57
   4221   47.70     661    624.5     25.71
   4222   47.71     683    646.4     26.13
   4223   47.72     726    676.1     26.94
   4224   47.73     750    712.8     27.39
   4225   47.74     777    759.9     27.87
   4226   47.75     839    817.9     28.97
   4227   47.76     903    888.1     30.05
   4228   47.77     947      973     30.77
   4229   47.78    1024     1072     32.00
   4230   47.79    1140   1187.7     33.76
   4231   47.80    1248   1322.1     35.33
   4232   47.81    1429   1477.3     37.80
   4233   47.82    1606   1654.1     40.07
   4234   47.83    1830     1850     42.78
   4235   47.84    2084   2051.8     45.65
   4236   47.85    2292   2226.6     47.87
   4237   47.86    2428   2330.9     49.27
   4238   47.87    2392   2323.6     48.91
   4239   47.88    2250   2206.8     47.43
   4240   47.89    2027   2023.2     45.02
   4241   47.90    1783     1820     42.23
   4242   47.91    1542   1625.9     39.27
   4243   47.92    1362   1452.2     36.91
   4244   47.93    1225   1300.6     35.00
   4245   47.94    1103   1169.8     33.21
   4246   47.95    1008   1057.6     31.75
   4247   47.96     943      962     30.71
   4248   47.97     868    881.4     29.46
   4249   47.98     788    814.1     28.07
   4250   47.99     768    757.7     27.71
   4251   48.00     724    712.5     26.91
   4252   48.01     698    676.1     26.42
   4253   48.02     670      647     25.88
   4254   48.03     644    623.8     25.38
   4255   48.04     623    605.2     24.96
   4256   48.05     613    590.3     24.76
   4257   48.06     607    578.1     24.64
   4258   48.07     589    568.1     24.27
   4259   48.08     583    559.7     24.15
   4260   48.09     573    552.5     23.94
   4261   48.10     568    546.4     23.83
   4262   48.11     561      541     23.69
   4263   48.12     552    536.4     23.49
   4264   48.13     541    531.4     23.26
   4265   48.14     537    527.9     23.17
   4266   48.15     532    524.9     23.07
   4267   48.16     521    521.4     22.83
   4268   48.17     533    520.4     23.09
   4269   48.18     530    518.8     23.02
   4270   48.19     525    517.5     22.91
   4271   48.20     530    516.7     23.02
   4272   48.21     521    516.3     22.83
   4273   48.22     520    516.3     22.80
   4274   48.23     528    516.6     22.98
   4275   48.24     521    517.5     22.83
   4276   48.25     528    518.8     22.98
   4277   48.26     532    520.6     23.07
   4278   48.27     533    523.2     23.09
   4279   48.28     538    526.5     23.19
   4280   48.29     555    530.9     23.56
   4281   48.30     543    535.4     23.30
   4282   48.31     561    542.7     23.69
   4283   48.32     577    551.9     24.02
   4284   48.33     579    563.5     24.06
   4285   48.34     585    578.1     24.19
   4286   48.35     614    596.4     24.78
   4287   48.36     616      619     24.82
   4288   48.37     658    646.7     25.65
   4289   48.38     671    680.3     25.90
   4290   48.39     700    720.3     26.46
   4291   48.40     748    767.7     27.35
   4292   48.41     784    823.1     28.00
   4293   48.42     855    887.5     29.24
   4294   48.43     903      962     30.05
   4295   48.44     998   1047.6     31.59
   4296   48.45    1103   1145.3     33.21
   4297   48.46    1220   1255.5     34.93
   4298   48.47    1388   1370.4     37.26
   4299   48.48    1528   1476.2     39.09
   4300   48.49    1610   1547.7     40.12
   4301   48.50    1594   1559.7     39.92
   4302   48.51    1536   1506.3     39.19
   4303   48.52    1407   1407.1     37.51
   4304   48.53    1260   1290.1     35.50
   4305   48.54    1121   1174.7     33.48
   4306   48.55     995     1070     31.54
   4307   48.56     919    978.1     30.32
   4308   48.57     843    898.6     29.03
   4309   48.58     785    830.2     28.02
   4310   48.59     722    771.8     26.87
   4311   48.60     692    722.4     26.31
   4312   48.61     661    681.1     25.71
   4313   48.62     648      647     25.46
   4314   48.63     623    619.3     24.96
   4315   48.64     602      597     24.54
   4316   48.65     583    579.4     24.15
   4317   48.66     576    565.6     24.00
   4318   48.67     561    554.9     23.69
   4319   48.68     543    546.4     23.30
   4320   48.69     545    538.8     23.35
   4321   48.70     535    533.4     23.13
   4322   48.71     535    528.8     23.13
   4323   48.72     527    524.7     22.96
   4324   48.73     525      521     22.91
   4325   48.74     521    517.4     22.83
   4326   48.75     502      515     22.41
   4327   48.76     508    511.7     22.54
   4328   48.77     513    508.6     22.65
   4329   48.78     497    505.6     22.29
   4330   48.79     506    502.8     22.49
   4331   48.80     495    502.4     22.25
   4332   48.81     486    500.3     22.05
   4333   48.82     483    498.3     21.98
   4334   48.83     490    496.6     22.14
   4335   48.84     480    495.2     21.91
   4336   48.85     482      494     21.95
   4337   48.86     476      493     21.82
   4338   48.87     484    492.3     22.00
   4339   48.88     481    491.9     21.93
   4340   48.89     483    491.6     21.98
   4341   48.90     474    491.5     21.77
   4342   48.91     474    491.5     21.77
   4343   48.92     479    491.7     21.89
   4344   48.93     481    494.1     21.93
   4345   48.94     477    494.5     21.84
   4346   48.95     487      495     22.07
   4347   48.96     473    495.5     21.75
   4348   48.97     475      495     21.79
   4349   48.98     480    495.6     21.91
   4350   48.99     483    496.2     21.98
   4351   49.00     495    496.8     22.25
   4352   49.01     484    497.5     22.00
   4353   49.02     488    498.3     22.09
   4354   49.03     498    499.2     22.32
   4355   49.04     485    500.4     22.02
   4356   49.05     482    501.7     21.95
   4357   49.06     478    503.3     21.86
   4358   49.07     486    505.1     22.05
   4359   49.08     489      507     22.11
   4360   49.09     483    509.1     21.98
   4361   49.10     492    511.3     22.18
   4362   49.11     487    513.4     22.07
   4363   49.12     495    515.4     22.25
   4364   49.13     498    517.1     22.32
   4365   49.14     499    518.4     22.34
   4366   49.15     510    519.2     22.58
   4367   49.16     507    519.4     22.52
   4368   49.17     511    517.7     22.61
   4369   49.18     503    516.8     22.43
   4370   49.19     506    515.3     22.49
   4371   49.20     508    513.4     22.54
   4372   49.21     520    511.2     22.80
   4373   49.22     511    508.9     22.61
   4374   49.23     510    507.5     22.58
   4375   49.24     507    505.2     22.52
   4376   49.25     508    503.1     22.54
   4377   49.26     505    501.2     22.47
   4378   49.27     502    499.5     22.41
   4379   49.28     495    498.1     22.25
   4380   49.29     515    498.1     22.69
   4381   49.30     503    497.5     22.43
   4382   49.31     511    499.7     22.61
   4383   49.32     499    500.3     22.34
   4384   49.33     492    501.4     22.18
   4385   49.34     492    503.3     22.18
   4386   49.35     512      506     22.63
   4387   49.36     508    509.6     22.54
   4388   49.37     516    514.4     22.72
   4389   49.38     531    520.6     23.04
   4390   49.39     528    528.5     22.98
   4391   49.40     537    538.2     23.17
   4392   49.41     562    548.2     23.71
   4393   49.42     565    562.7     23.77
   4394   49.43     581      580     24.10
   4395   49.44     588    600.4     24.25
   4396   49.45     615    624.1     24.80
   4397   49.46     638    651.5     25.26
   4398   49.47     668    682.8     25.85
   4399   49.48     677    718.4     26.02
   4400   49.49     742    758.4     27.24
   4401   49.50     784    802.5     28.00
   4402   49.51     828    848.6     28.77
   4403   49.52     906    891.6     30.10
   4404   49.53     949    921.6     30.81
   4405   49.54     953    930.7     30.87
   4406   49.55     946    916.8     30.76
   4407   49.56     897    884.7     29.95
   4408   49.57     835    844.1     28.90
   4409   49.58     790    802.2     28.11
   4410   49.59     741    762.6     27.22
   4411   49.60     700    726.5     26.46
   4412   49.61     687    693.9     26.21
   4413   49.62     649    664.7     25.48
   4414   49.63     635    638.8     25.20
   4415   49.64     623      616     24.96
   4416   49.65     615      596     24.80
   4417   49.66     593    578.8     24.35
   4418   49.67     591    564.1     24.31
   4419   49.68     586    551.8     24.21
   4420   49.69     568    541.6     23.83
   4421   49.70     562    533.2     23.71
   4422   49.71     551    526.5     23.47
   4423   49.72     548    523.1     23.41
   4424   49.73     547      519     23.39
   4425   49.74     526    515.9     22.93
   4426   49.75     534    513.6     23.11
   4427   49.76     531      512     23.04
   4428   49.77     533      511     23.09
   4429   49.78     533    510.5     23.09
   4430   49.79     525    508.2     22.91
   4431   49.80     521    508.7     22.83
   4432   49.81     536    509.5     23.15
   4433   49.82     540    510.6     23.24
   4434   49.83     540      512     23.24
   4435   49.84     533    513.6     23.09
   4436   49.85     547    515.6     23.39
   4437   49.86     553    519.1     23.52
   4438   49.87     551    521.9     23.47
   4439   49.88     561    525.2     23.69
   4440   49.89     571      529     23.90
   4441   49.90     569    533.5     23.85
   4442   49.91     587    538.7     24.23
   4443   49.92     603      545     24.56
   4444   49.93     606    552.6     24.62
   4445   49.94     619    560.9     24.88
   4446   49.95     642    572.4     25.34
   4447   49.96     648    586.6     25.46
   4448   49.97     671    604.4     25.90
   4449   49.98     711    626.7     26.66
   4450   49.99     727    654.6     26.96
   4451   50.00     764    689.2     27.64
   4452   50.01     792    732.1     28.14
   4453   50.02     827    784.7     28.76
   4454   50.03     885    848.5     29.75
   4455   50.04     929    925.2     30.48
   4456   50.05    1008   1016.1     31.75
   4457   50.06    1094     1123     33.08
   4458   50.07    1191   1247.5     34.51
   4459   50.08    1309   1391.6     36.18
   4460   50.09    1479   1557.4     38.46
   4461   50.10    1634   1747.3     40.42
   4462   50.11    1876   1962.3     43.31
   4463   50.12    2160   2200.2     46.48
   4464   50.13    2473   2441.2     49.73
   4465   50.14    2730   2651.2     52.25
   4466   50.15    2955     2777     54.36
   4467   50.16    2944   2775.2     54.26
   4468   50.17    2792   2646.2     52.84
   4469   50.18    2552   2435.6     50.52
   4470   50.19    2242   2197.5     47.35
   4471   50.20    1928   1967.3     43.91
   4472   50.21    1720   1760.8     41.47
   4473   50.22    1495   1581.7     38.67
   4474   50.23    1356   1429.4     36.82
   4475   50.24    1265   1301.8     35.57
   4476   50.25    1168   1197.1     34.18
   4477   50.26    1101   1113.5     33.18
   4478   50.27    1036   1049.6     32.19
   4479   50.28    1002   1004.3     31.65
   4480   50.29     981    976.3     31.32
   4481   50.30     995    964.5     31.54
   4482   50.31     994    967.7     31.53
   4483   50.32     998      984     31.59
   4484   50.33    1048   1007.9     32.37
   4485   50.34    1094   1036.6     33.08
   4486   50.35    1135   1056.6     33.69
   4487   50.36    1159   1055.7     34.04
   4488   50.37    1103   1028.4     33.21
   4489   50.38    1040    980.3     32.25
   4490   50.39     965    922.7     31.06
   4491   50.40     896    864.8     29.93
   4492   50.41     813    811.6     28.51
   4493   50.42     785    764.3     28.02
   4494   50.43     724    722.9     26.91
   4495   50.44     689      687     26.25
   4496   50.45     671    655.8     25.90
   4497   50.46     649      629     25.48
   4498   50.47     638    606.1     25.26
   4499   50.48     601    586.7     24.52
   4500   50.49     593    570.3     24.35
   4501   50.50     564    556.7     23.75
   4502   50.51     573    545.5     23.94
   4503   50.52     559    536.2     23.64
   4504   50.53     553    528.7     23.52
   4505   50.54     549    522.5     23.43
   4506   50.55     529    517.5     23.00
   4507   50.56     522    513.4     22.85
   4508   50.57     527      510     22.96
   4509   50.58     513    507.2     22.65
   4510   50.59     514    504.8     22.67
   4511   50.60     528    505.1     22.98
   4512   50.61     507    503.6     22.52
   4513   50.62     503    502.3     22.43
   4514   50.63     517    501.3     22.74
   4515   50.64     511    500.5     22.61
   4516   50.65     507    501.2     22.52
   4517   50.66     513      501     22.65
   4518   50.67     510    501.1     22.58
   4519   50.68     508    501.4     22.54
   4520   50.69     514    501.9     22.67
   4521   50.70     510    503.9     22.58
   4522   50.71     511    505.1     22.61
   4523   50.72     524    506.5     22.89
   4524   50.73     521    508.1     22.83
   4525   50.74     513    509.9     22.65
   4526   50.75     528    511.9     22.98
   4527   50.76     514      514     22.67
   4528   50.77     525    516.2     22.91
   4529   50.78     540    518.5     23.24
   4530   50.79     531    520.7     23.04
   4531   50.80     532    522.7     23.07
   4532   50.81     530    524.6     23.02
   4533   50.82     530    526.3     23.02
   4534   50.83     545    527.7     23.35
   4535   50.84     542    528.9     23.28
   4536   50.85     544    529.8     23.32
   4537   50.86     545    530.7     23.35
   4538   50.87     557    531.4     23.60
   4539   50.88     552    532.1     23.49
   4540   50.89     567    532.9     23.81
   4541   50.90     558    533.7     23.62
   4542   50.91     554    534.7     23.54
   4543   50.92     568    535.8     23.83
   4544   50.93     574    537.3     23.96
   4545   50.94     572    539.3     23.92
   4546   50.95     587      543     24.23
   4547   50.96     590    546.7     24.29
   4548   50.97     586    553.2     24.21
   4549   50.98     597    560.4     24.43
   4550   50.99     614    569.9     24.78
   4551   51.00     620    579.3     24.90
   4552   51.01     643    595.8     25.36
   4553   51.02     653    616.6     25.55
   4554   51.03     675    641.7     25.98
   4555   51.04     699    673.8     26.44
   4556   51.05     735    711.8     27.11
   4557   51.06     776    758.8     27.86
   4558   51.07     813    814.5     28.51
   4559   51.08     862    879.8     29.36
   4560   51.09     927    955.7     30.45
   4561   51.10     996   1044.2     31.56
   4562   51.11    1111   1144.7     33.33
   4563   51.12    1181   1259.2     34.37
   4564   51.13    1347   1387.1     36.70
   4565   51.14    1546   1523.5     39.32
   4566   51.15    1697     1654     41.19
   4567   51.16    1839   1756.2     42.88
   4568   51.17    1938   1799.4     44.02
   4569   51.18    1898   1767.8     43.57
   4570   51.19    1741   1672.8     41.73
   4571   51.20    1605   1543.5     40.06
   4572   51.21    1429   1406.5     37.80
   4573   51.22    1248   1276.7     35.33
   4574   51.23    1130   1160.2     33.62
   4575   51.24    1015   1057.5     31.86
   4576   51.25     945      968     30.74
   4577   51.26     872    890.3     29.53
   4578   51.27     819    823.3     28.62
   4579   51.28     774      766     27.82
   4580   51.29     757    717.4     27.51
   4581   51.30     709    676.7     26.63
   4582   51.31     677      643     26.02
   4583   51.32     640    615.4     25.30
   4584   51.33     630    593.1     25.10
   4585   51.34     600    575.2     24.49
   4586   51.35     593      561     24.35
   4587   51.36     586    549.8     24.21
   4588   51.37     584      541     24.17
   4589   51.38     572    534.2     23.92
   4590   51.39     568    526.9     23.83
   4591   51.40     550    522.7     23.45
   4592   51.41     549    518.4     23.43
   4593   51.42     557      516     23.60
   4594   51.43     554    514.2     23.54
   4595   51.44     541    512.9     23.26
   4596   51.45     545      513     23.35
   4597   51.46     543    512.5     23.30
   4598   51.47     543    512.3     23.30
   4599   51.48     552    512.5     23.49
   4600   51.49     541      513     23.26
   4601   51.50     541    513.9     23.26
   4602   51.51     538    515.2     23.19
   4603   51.52     545    518.4     23.35
   4604   51.53     558    520.9     23.62
   4605   51.54     567    524.1     23.81
   4606   51.55     574    528.3     23.96
   4607   51.56     575    533.6     23.98
   4608   51.57     589    540.2     24.27
   4609   51.58     599    548.7     24.47
   4610   51.59     609    559.4     24.68
   4611   51.60     622    572.7     24.94
   4612   51.61     629    589.4     25.08
   4613   51.62     660    610.1     25.69
   4614   51.63     667    635.4     25.83
   4615   51.64     686    666.1     26.19
   4616   51.65     719    702.9     26.81
   4617   51.66     753    746.5     27.44
   4618   51.67     789    797.7     28.09
   4619   51.68     845    857.3     29.07
   4620   51.69     882    927.2     29.70
   4621   51.70     962   1006.1     31.02
   4622   51.71    1056     1096     32.50
   4623   51.72    1147   1197.9     33.87
   4624   51.73    1269   1311.7     35.62
   4625   51.74    1414   1434.3     37.60
   4626   51.75    1573   1556.2     39.66
   4627   51.76    1715   1657.8     41.41
   4628   51.77    1825   1714.6     42.72
   4629   51.78    1828     1706     42.76
   4630   51.79    1726   1638.1     41.55
   4631   51.80    1583   1531.8     39.79
   4632   51.81    1445   1413.9     38.01
   4633   51.82    1276   1300.9     35.72
   4634   51.83    1187   1200.3     34.45
   4635   51.84    1107   1114.3     33.27
   4636   51.85    1021   1042.4     31.95
   4637   51.86     966      984     31.08
   4638   51.87     929    938.3     30.48
   4639   51.88     895    904.4     29.92
   4640   51.89     881      882     29.68
   4641   51.90     878    870.5     29.63
   4642   51.91     867    869.5     29.44
   4643   51.92     883    878.6     29.72
   4644   51.93     900      897     30.00
   4645   51.94     937    922.8     30.61
   4646   51.95    1003    950.5     31.67
   4647   51.96    1026    974.8     32.03
   4648   51.97    1023    984.3     31.98
   4649   51.98    1032    971.9     32.12
   4650   51.99     990    938.6     31.46
   4651   52.00     919    892.6     30.32
   4652   52.01     867    842.8     29.44
   4653   52.02     796    794.8     28.21
   4654   52.03     746    751.3     27.31
   4655   52.04     725    712.6     26.93
   4656   52.05     687    678.6     26.21
   4657   52.06     642    648.8     25.34
   4658   52.07     633    622.8     25.16
   4659   52.08     608    599.3     24.66
   4660   52.09     600      580     24.49
   4661   52.10     578    563.5     24.04
   4662   52.11     561    549.6     23.69
   4663   52.12     550    536.7     23.45
   4664   52.13     549    528.2     23.43
   4665   52.14     547    520.4     23.39
   4666   52.15     528    514.1     22.98
   4667   52.16     525    508.9     22.91
   4668   52.17     525    504.7     22.91
   4669   52.18     520    501.2     22.80
   4670   52.19     509    498.5     22.56
   4671   52.20     505    496.3     22.47
   4672   52.21     501    493.2     22.38
   4673   52.22     499    491.9     22.34
   4674   52.23     495      489     22.25
   4675   52.24     488    489.3     22.09
   4676   52.25     490    488.9     22.14
   4677   52.26     496    488.7     22.27
   4678   52.27     510    489.8     22.58
   4679   52.28     505    490.1     22.47
   4680   52.29     509    490.7     22.56
   4681   52.30     502    491.4     22.41
   4682   52.31     490    492.4     22.14
   4683   52.32     495    493.6     22.25
   4684   52.33     486      495     22.05
   4685   52.34     498    496.5     22.32
   4686   52.35     499    498.1     22.34
   4687   52.36     494    499.9     22.23
   4688   52.37     511    501.7     22.61
   4689   52.38     505    503.4     22.47
   4690   52.39     506      505     22.49
   4691   52.40     504    506.5     22.45
   4692   52.41     510    507.6     22.58
   4693   52.42     502    508.4     22.41
   4694   52.43     504    508.9     22.45
   4695   52.44     510    508.9     22.58
   4696   52.45     506    508.6     22.49
   4697   52.46     510      508     22.58
   4698   52.47     517    507.2     22.74
   4699   52.48     514    506.3     22.67
   4700   52.49     520    505.4     22.80
   4701   52.50     515    504.7     22.69
   4702   52.51     518    504.1     22.76
   4703   52.52     520    503.9     22.80
   4704   52.53     524    504.1     22.89
   4705   52.54     516    504.8     22.72
   4706   52.55     521    506.2     22.83
   4707   52.56     522    508.5     22.85
   4708   52.57     520    511.8     22.80
   4709   52.58     528    516.3     22.98
   4710   52.59     534    522.4     23.11
   4711   52.60     532    529.3     23.07
   4712   52.61     562    539.5     23.71
   4713   52.62     563    552.2     23.73
   4714   52.63     582    567.9     24.12
   4715   52.64     586    586.9     24.21
   4716   52.65     598    609.8     24.45
   4717   52.66     622    636.9     24.94
   4718   52.67     654    668.6     25.57
   4719   52.68     689    705.4     26.25
   4720   52.69     712    747.9     26.68
   4721   52.70     747    796.7     27.33
   4722   52.71     824    852.3     28.71
   4723   52.72     875      915     29.58
   4724   52.73     960    983.7     30.98
   4725   52.74    1054   1053.4     32.47
   4726   52.75    1139   1116.8     33.75
   4727   52.76    1219   1158.7     34.91
   4728   52.77    1236   1166.3     35.16
   4729   52.78    1187   1136.6     34.45
   4730   52.79    1124   1079.6     33.53
   4731   52.80    1020   1010.1     31.94
   4732   52.81     935    939.7     30.58
   4733   52.82     853    874.2     29.21
   4734   52.83     797    815.7     28.23
   4735   52.84     734    764.3     27.09
   4736   52.85     700    718.4     26.46
   4737   52.86     659    679.5     25.67
   4738   52.87     629    645.8     25.08
   4739   52.88     612      617     24.74
   4740   52.89     580    592.6     24.08
   4741   52.90     578      572     24.04
   4742   52.91     559      556     23.64
   4743   52.92     554    542.1     23.54
   4744   52.93     545    530.8     23.35
   4745   52.94     541    521.8     23.26
   4746   52.95     532    513.6     23.07
   4747   52.96     523      509     22.87
   4748   52.97     522    504.6     22.85
   4749   52.98     517    502.2     22.74
   4750   52.99     510    499.6     22.58
   4751   53.00     501    497.7     22.38
   4752   53.01     505    496.2     22.47
   4753   53.02     510    495.2     22.58
   4754   53.03     509    494.5     22.56
   4755   53.04     505    494.1     22.47
   4756   53.05     509    493.9     22.56
   4757   53.06     509      494     22.56
   4758   53.07     492    494.3     22.18
   4759   53.08     502    494.9     22.41
   4760   53.09     511    495.7     22.61
   4761   53.10     499    496.8     22.34
   4762   53.11     506    498.3     22.49
   4763   53.12     519    501.6     22.78
   4764   53.13     515    504.3     22.69
   4765   53.14     516    507.7     22.72
   4766   53.15     532      512     23.07
   4767   53.16     527    518.7     22.96
   4768   53.17     530    525.8     23.02
   4769   53.18     547    534.6     23.39
   4770   53.19     556    545.5     23.58
   4771   53.20     567    558.9     23.81
   4772   53.21     587    575.3     24.23
   4773   53.22     584    595.1     24.17
   4774   53.23     616    618.7     24.82
   4775   53.24     633    646.7     25.16
   4776   53.25     671    679.3     25.90
   4777   53.26     702    717.2     26.50
   4778   53.27     727    759.9     26.96
   4779   53.28     776    809.8     27.86
   4780   53.29     828    866.7     28.77
   4781   53.30     889      931     29.82
   4782   53.31     955   1003.1     30.90
   4783   53.32    1049   1081.4     32.39
   4784   53.33    1155   1161.4     33.99
   4785   53.34    1249   1232.5     35.34
   4786   53.35    1331   1279.3     36.48
   4787   53.36    1343   1287.5     36.65
   4788   53.37    1302   1254.3     36.08
   4789   53.38    1219     1192     34.91
   4790   53.39    1118   1115.1     33.44
   4791   53.40    1015   1037.7     31.86
   4792   53.41     938    966.4     30.63
   4793   53.42     869    903.8     29.48
   4794   53.43     811    850.1     28.48
   4795   53.44     769    804.9     27.73
   4796   53.45     733    767.6     27.07
   4797   53.46     710    737.7     26.65
   4798   53.47     686    714.7     26.19
   4799   53.48     685    697.2     26.17
   4800   53.49     675    687.2     25.98
   4801   53.50     694    683.2     26.34
   4802   53.51     688    684.4     26.23
   4803   53.52     680    688.6     26.08
   4804   53.53     696    696.3     26.38
   4805   53.54     708    702.4     26.61
   4806   53.55     706    702.8     26.57
   4807   53.56     712    694.5     26.68
   4808   53.57     687    678.2     26.21
   4809   53.58     653    657.2     25.55
   4810   53.59     634    635.1     25.18
   4811   53.60     606      614     24.62
   4812   53.61     584      595     24.17
   4813   53.62     559    578.1     23.64
   4814   53.63     555    563.4     23.56
   4815   53.64     540    550.6     23.24
   4816   53.65     517    539.4     22.74
   4817   53.66     526    529.8     22.93
   4818   53.67     522    521.5     22.85
   4819   53.68     508    514.5     22.54
   4820   53.69     513      510     22.65
   4821   53.70     512    506.6     22.63
   4822   53.71     500      503     22.36
   4823   53.72     498    500.2     22.32
   4824   53.73     495    498.1     22.25
   4825   53.74     493    496.6     22.20
   4826   53.75     486    495.7     22.05
   4827   53.76     496    495.2     22.27
   4828   53.77     492      494     22.18
   4829   53.78     493    494.2     22.20
   4830   53.79     489    494.6     22.11
   4831   53.80     485    495.2     22.02
   4832   53.81     503    495.8     22.43
   4833   53.82     490    495.6     22.14
   4834   53.83     489    496.4     22.11
   4835   53.84     482    499.1     21.95
   4836   53.85     493    499.8     22.20
   4837   53.86     491    500.3     22.16
   4838   53.87     489    500.6     22.11
   4839   53.88     498    500.7     22.32
   4840   53.89     493    500.6     22.20
   4841   53.90     503    500.4     22.43
   4842   53.91     506      500     22.49
   4843   53.92     499      501     22.34
   4844   53.93     510    500.8     22.58
   4845   53.94     507    500.6     22.52
   4846   53.95     506    500.5     22.49
   4847   53.96     500    500.6     22.36
   4848   53.97     495    500.9     22.25
   4849   53.98     496    501.4     22.27
   4850   53.99     513    502.1     22.65
   4851   54.00     509    503.2     22.56
   4852   54.01     501    503.3     22.38
   4853   54.02     517    505.1     22.74
   4854   54.03     503    507.2     22.43
   4855   54.04     507    509.6     22.52
   4856   54.05     523    512.3     22.87
   4857   54.06     535    515.3     23.13
   4858   54.07     535    518.8     23.13
   4859   54.08     547    521.5     23.39
   4860   54.09     554    526.2     23.54
   4861   54.10     554    531.7     23.54
   4862   54.11     562    538.1     23.71
   4863   54.12     581    545.7     24.10
   4864   54.13     586      555     24.21
   4865   54.14     598    566.4     24.45
   4866   54.15     592    579.6     24.33
   4867   54.16     630    597.1     25.10
   4868   54.17     655    620.1     25.59
   4869   54.18     679    646.7     26.06
   4870   54.19     708    679.2     26.61
   4871   54.20     734    718.2     27.09
   4872   54.21     767    764.6     27.69
   4873   54.22     816    819.2     28.57
   4874   54.23     861      883     29.34
   4875   54.24     909    956.8     30.15
   4876   54.25     972   1041.7     31.18
   4877   54.26    1060   1138.8     32.56
   4878   54.27    1150   1249.3     33.91
   4879   54.28    1276   1373.7     35.72
   4880   54.29    1422   1510.8     37.71
   4881   54.30    1590   1653.9     39.87
   4882   54.31    1777   1786.9     42.15
   4883   54.32    1955   1886.9     44.22
   4884   54.33    2008   1925.3     44.81
   4885   54.34    1962   1889.1     44.29
   4886   54.35    1853   1790.5     43.05
   4887   54.36    1687   1656.9     41.07
   4888   54.37    1495   1513.9     38.67
   4889   54.38    1320   1376.9     36.33
   4890   54.39    1192   1252.5     34.53
   4891   54.40    1086   1141.9     32.95
   4892   54.41    1000   1044.6     31.62
   4893   54.42     921    959.5     30.35
   4894   54.43     880    885.4     29.66
   4895   54.44     800    821.3     28.28
   4896   54.45     765    766.2     27.66
   4897   54.46     721    719.4     26.85
   4898   54.47     703      680     26.51
   4899   54.48     655    646.2     25.59
   4900   54.49     644    619.3     25.38
   4901   54.50     626    597.3     25.02
   4902   54.51     615    579.6     24.80
   4903   54.52     603    565.4     24.56
   4904   54.53     579    554.2     24.06
   4905   54.54     575    545.3     23.98
   4906   54.55     567    538.4     23.81
   4907   54.56     565    531.7     23.77
   4908   54.57     561    527.7     23.69
   4909   54.58     553    524.6     23.52
   4910   54.59     544    522.3     23.32
   4911   54.60     540    520.6     23.24
   4912   54.61     538    519.6     23.19
   4913   54.62     545      519     23.35
   4914   54.63     559      519     23.64
   4915   54.64     546    519.5     23.37
   4916   54.65     548    520.5     23.41
   4917   54.66     551    522.2     23.47
   4918   54.67     551    524.6     23.47
   4919   54.68     554    527.8     23.54
   4920   54.69     551    532.2     23.47
   4921   54.70     576    540.8     24.00
   4922   54.71     589    548.7     24.27
   4923   54.72     595    558.7     24.39
   4924   54.73     603    571.4     24.56
   4925   54.74     607    587.1     24.64
   4926   54.75     629    606.6     25.08
   4927   54.76     636    630.4     25.22
   4928   54.77     663    659.2     25.75
   4929   54.78     695    693.5     26.36
   4930   54.79     721    734.1     26.85
   4931   54.80     770    781.5     27.75
   4932   54.81     804    836.5     28.35
   4933   54.82     844    899.8     29.05
   4934   54.83     911    972.1     30.18
   4935   54.84     973   1054.3     31.19
   4936   54.85    1059   1147.4     32.54
   4937   54.86    1175   1252.8     34.28
   4938   54.87    1304   1366.2     36.11
   4939   54.88    1431   1482.5     37.83
   4940   54.89    1608   1587.7     40.10
   4941   54.90    1729   1660.5     41.58
   4942   54.91    1754   1680.2     41.88
   4943   54.92    1740   1639.8     41.71
   4944   54.93    1600     1552     40.00
   4945   54.94    1438   1439.7     37.92
   4946   54.95    1321   1322.1     36.35
   4947   54.96    1180   1213.1     34.35
   4948   54.97    1063   1112.4     32.60
   4949   54.98     989   1023.1     31.45
   4950   54.99     897    944.7     29.95
   4951   55.00     827    876.1     28.76
   4952   55.01     777    816.4     27.87
   4953   55.02     730    764.8     27.02
   4954   55.03     701    720.6     26.48
   4955   55.04     670    682.9     25.88
   4956   55.05     645    651.1     25.40
   4957   55.06     611    624.5     24.72
   4958   55.07     615    602.4     24.80
   4959   55.08     603    581.8     24.56
   4960   55.09     583    567.2     24.15
   4961   55.10     569    555.4     23.85
   4962   55.11     563    545.6     23.73
   4963   55.12     545    537.6     23.35
   4964   55.13     549      531     23.43
   4965   55.14     529    525.3     23.00
   4966   55.15     521    520.4     22.83
   4967   55.16     518    516.1     22.76
   4968   55.17     511    512.3     22.61
   4969   55.18     499    508.8     22.34
   4970   55.19     503    505.6     22.43
   4971   55.20     483    502.6     21.98
   4972   55.21     493    499.9     22.20
   4973   55.22     497    497.4     22.29
   4974   55.23     483    495.1     21.98
   4975   55.24     486      493     22.05
   4976   55.25     486    489.9     22.05
   4977   55.26     484    488.2     22.00
   4978   55.27     474    486.8     21.77
   4979   55.28     473    485.4     21.75
   4980   55.29     469    483.2     21.66
   4981   55.30     456    482.1     21.35
   4982   55.31     453    481.2     21.28
   4983   55.32     460    480.3     21.45
   4984   55.33     454    479.5     21.31
   4985   55.34     462    477.6     21.49
   4986   55.35     454    477.1     21.31
   4987   55.36     459    476.7     21.42
   4988   55.37     457    477.7     21.38
   4989   55.38     453    477.6     21.28
   4990   55.39     463    477.5     21.52
   4991   55.40     454    477.6     21.31
   4992   55.41     453    477.7     21.28
   4993   55.42     447    477.9     21.14
   4994   55.43     457    478.2     21.38
   4995   55.44     451    478.5     21.24
   4996   55.45     464      479     21.54
   4997   55.46     473    479.5     21.75
   4998   55.47     448      480     21.17
   4999   55.48     452    480.7     21.26
   5000   55.49     456    481.4     21.35
   5001   55.50     461    482.1     21.47
   5002   55.51     471    482.8     21.70
   5003   55.52     466    483.4     21.59
   5004   55.53     462    484.1     21.49
   5005   55.54     454    484.7     21.31
   5006   55.55     464    485.2     21.54
   5007   55.56     462    485.6     21.49
   5008   55.57     471    485.9     21.70
   5009   55.58     484    486.2     22.00
   5010   55.59     465    486.4     21.56
   5011   55.60     473    486.7     21.75
   5012   55.61     472      487     21.73
   5013   55.62     468    487.6     21.63
   5014   55.63     470    488.3     21.68
   5015   55.64     475    489.4     21.79
   5016   55.65     483    490.9     21.98
   5017   55.66     482      493     21.95
   5018   55.67     484    495.8     22.00
   5019   55.68     493    498.4     22.20
   5020   55.69     497    503.1     22.29
   5021   55.70     485    510.2     22.02
   5022   55.71     504    518.6     22.45
   5023   55.72     511    527.8     22.61
   5024   55.73     520    540.2     22.80
   5025   55.74     532    553.5     23.07
   5026   55.75     544      568     23.32
   5027   55.76     576    586.5     24.00
   5028   55.77     586    607.8     24.21
   5029   55.78     593    632.1     24.35
   5030   55.79     624      660     24.98
   5031   55.80     653    691.5     25.55
   5032   55.81     688    727.1     26.23
   5033   55.82     725    766.3     26.93
   5034   55.83     775    807.8     27.84
   5035   55.84     825    849.2     28.72
   5036   55.85     869    882.2     29.48
   5037   55.86     918    900.2     30.30
   5038   55.87     904    898.2     30.07
   5039   55.88     897    877.1     29.95
   5040   55.89     830    843.6     28.81
   5041   55.90     776      805     27.86
   5042   55.91     750    766.6     27.39
   5043   55.92     707    730.8     26.59
   5044   55.93     671    698.3     25.90
   5045   55.94     654    669.3     25.57
   5046   55.95     620    643.4     24.90
   5047   55.96     603    620.3     24.56
   5048   55.97     593    599.8     24.35
   5049   55.98     582    579.7     24.12
   5050   55.99     552    565.2     23.49
   5051   56.00     554    551.6     23.54
   5052   56.01     552    539.9     23.49
   5053   56.02     536      530     23.15
   5054   56.03     532    521.7     23.07
   5055   56.04     519    514.8     22.78
   5056   56.05     513    509.1     22.65
   5057   56.06     523    504.6     22.87
   5058   56.07     516      503     22.72
   5059   56.08     501    500.2     22.38
   5060   56.09     509    498.1     22.56
   5061   56.10     497    495.3     22.29
   5062   56.11     488    494.3     22.09
   5063   56.12     503    493.7     22.43
   5064   56.13     492    493.3     22.18
   5065   56.14     486    494.2     22.05
   5066   56.15     490    494.1     22.14
   5067   56.16     495    494.2     22.25
   5068   56.17     481    494.3     21.93
   5069   56.18     507    494.6     22.52
   5070   56.19     492    494.9     22.18
   5071   56.20     475    494.3     21.79
   5072   56.21     497      495     22.29
   5073   56.22     490    496.1     22.14
   5074   56.23     490    498.7     22.14
   5075   56.24     504    500.8     22.45
   5076   56.25     518    503.5     22.76
   5077   56.26     511    506.9     22.61
   5078   56.27     513    511.3     22.65
   5079   56.28     504    516.6     22.45
   5080   56.29     521    523.2     22.83
   5081   56.30     530      531     23.02
   5082   56.31     535    540.3     23.13
   5083   56.32     540    551.2     23.24
   5084   56.33     549    563.8     23.43
   5085   56.34     551    579.6     23.47
   5086   56.35     575    596.4     23.98
   5087   56.36     594    614.4     24.37
   5088   56.37     611    636.3     24.72
   5089   56.38     641    660.8     25.32
   5090   56.39     672    687.8     25.92
   5091   56.40     704    716.2     26.53
   5092   56.41     741    743.6     27.22
   5093   56.42     766    766.2     27.68
   5094   56.43     787    779.5     28.05
   5095   56.44     796    781.6     28.21
   5096   56.45     802    774.2     28.32
   5097   56.46     768    762.2     27.71
   5098   56.47     742    750.1     27.24
   5099   56.48     734      741     27.09
   5100   56.49     703    736.7     26.51
   5101   56.50     704    737.8     26.53
   5102   56.51     705    744.5     26.55
   5103   56.52     715      757     26.74
   5104   56.53     738    775.4     27.17
   5105   56.54     747    799.9     27.33
   5106   56.55     777    830.7     27.87
   5107   56.56     821    868.1     28.65
   5108   56.57     860    911.9     29.33
   5109   56.58     909    961.2     30.15
   5110   56.59     980   1012.7     31.30
   5111   56.60    1055   1058.6     32.48
   5112   56.61    1083   1091.6     32.91
   5113   56.62    1122   1100.1     33.50
   5114   56.63    1122   1080.3     33.50
   5115   56.64    1042   1036.9     32.28
   5116   56.65     980    980.5     31.30
   5117   56.66     885    920.6     29.75
   5118   56.67     817    863.1     28.58
   5119   56.68     774    810.5     27.82
   5120   56.69     743    763.6     27.26
   5121   56.70     687    722.2     26.21
   5122   56.71     663    685.7     25.75
   5123   56.72     633    653.8     25.16
   5124   56.73     619      626     24.88
   5125   56.74     590      602     24.29
   5126   56.75     585    581.3     24.19
   5127   56.76     568    563.8     23.83
   5128   56.77     547    550.4     23.39
   5129   56.78     539    537.3     23.22
   5130   56.79     518    527.4     22.76
   5131   56.80     512    519.3     22.63
   5132   56.81     500    512.8     22.36
   5133   56.82     503    506.6     22.43
   5134   56.83     497    502.6     22.29
   5135   56.84     498    499.6     22.32
   5136   56.85     488    497.2     22.09
   5137   56.86     496    495.5     22.27
   5138   56.87     499    494.1     22.34
   5139   56.88     488    493.1     22.09
   5140   56.89     479    492.4     21.89
   5141   56.90     478    491.8     21.86
   5142   56.91     480    491.4     21.91
   5143   56.92     481      491     21.93
   5144   56.93     486    490.7     22.05
   5145   56.94     481    490.3     21.93
   5146   56.95     474      491     21.77
   5147   56.96     481    490.6     21.93
   5148   56.97     489    490.2     22.11
   5149   56.98     477    489.8     21.84
   5150   56.99     478    489.3     21.86
   5151   57.00     480    488.9     21.91
   5152   57.01     480    488.6     21.91
   5153   57.02     488    488.3     22.09
   5154   57.03     489    488.1     22.11
   5155   57.04     481      488     21.93
   5156   57.05     491    489.4     22.16
   5157   57.06     496    489.7     22.27
   5158   57.07     492    490.3     22.18
   5159   57.08     496    491.1     22.27
   5160   57.09     491    492.1     22.16
   5161   57.10     498    493.4     22.32
   5162   57.11     493    495.1     22.20
   5163   57.12     501    497.1     22.38
   5164   57.13     505    498.4     22.47
   5165   57.14     505    501.6     22.47
   5166   57.15     515    505.4     22.69
   5167   57.16     515    509.1     22.69
   5168   57.17     523    514.9     22.87
   5169   57.18     540    519.9     23.24
   5170   57.19     544    528.5     23.32
   5171   57.20     542    538.9     23.28
   5172   57.21     565    551.4     23.77
   5173   57.22     556    566.5     23.58
   5174   57.23     590    584.4     24.29
   5175   57.24     606    608.6     24.62
   5176   57.25     625    634.8     25.00
   5177   57.26     650    663.9     25.50
   5178   57.27     673    697.4     25.94
   5179   57.28     697    735.6     26.40
   5180   57.29     753    779.3     27.44
   5181   57.30     789    828.7     28.09
   5182   57.31     837    884.5     28.93
   5183   57.32     908    945.4     30.13
   5184   57.33     986   1012.8     31.40
   5185   57.34    1065   1081.3     32.63
   5186   57.35    1162   1143.3     34.09
   5187   57.36    1249     1187     35.34
   5188   57.37    1298     1201     36.03
   5189   57.38    1273   1181.1     35.68
   5190   57.39    1196   1133.3     34.58
   5191   57.40    1083     1070     32.91
   5192   57.41    1018   1002.5     31.91
   5193   57.42     937    937.2     30.61
   5194   57.43     866    877.4     29.43
   5195   57.44     808    823.9     28.43
   5196   57.45     750    776.5     27.39
   5197   57.46     709    734.8     26.63
   5198   57.47     688    698.3     26.23
   5199   57.48     672    666.5     25.92
   5200   57.49     639      639     25.28
   5201   57.50     625    615.4     25.00
   5202   57.51     613    595.5     24.76
   5203   57.52     586    578.8     24.21
   5204   57.53     581      565     24.10
   5205   57.54     577    553.6     24.02
   5206   57.55     563    544.5     23.73
   5207   57.56     573    537.1     23.94
   5208   57.57     567    531.3     23.81
   5209   57.58     562    527.7     23.71
   5210   57.59     560    524.2     23.66
   5211   57.60     550    521.5     23.45
   5212   57.61     547    518.4     23.39
   5213   57.62     542    517.2     23.28
   5214   57.63     552    516.5     23.49
   5215   57.64     537    516.3     23.17
   5216   57.65     538    516.6     23.19
   5217   57.66     548    517.5     23.41
   5218   57.67     555      519     23.56
   5219   57.68     558    521.2     23.62
   5220   57.69     561    524.3     23.69
   5221   57.70     561    528.4     23.69
   5222   57.71     575    533.8     23.98
   5223   57.72     573    540.7     23.94
   5224   57.73     567    549.5     23.81
   5225   57.74     592    560.6     24.33
   5226   57.75     619    575.6     24.88
   5227   57.76     625    591.5     25.00
   5228   57.77     642    612.5     25.34
   5229   57.78     656    637.7     25.61
   5230   57.79     677    667.6     26.02
   5231   57.80     702    702.8     26.50
   5232   57.81     745    743.9     27.29
   5233   57.82     767    791.3     27.69
   5234   57.83     826    845.7     28.74
   5235   57.84     864    907.8     29.39
   5236   57.85     926    978.3     30.43
   5237   57.86     993     1058     31.51
   5238   57.87    1086   1147.6     32.95
   5239   57.88    1172   1246.7     34.23
   5240   57.89    1302   1352.8     36.08
   5241   57.90    1446   1458.8     38.03
   5242   57.91    1595   1551.2     39.94
   5243   57.92    1692   1611.4     41.13
   5244   57.93    1730   1623.4     41.59
   5245   57.94    1693   1583.8     41.15
   5246   57.95    1579   1504.5     39.74
   5247   57.96    1441   1406.1     37.96
   5248   57.97    1297   1302.2     36.01
   5249   57.98    1162   1203.8     34.09
   5250   57.99    1064   1114.9     32.62
   5251   58.00     991   1036.7     31.48
   5252   58.01     936    971.4     30.59
   5253   58.02     889    914.4     29.82
   5254   58.03     842    865.4     29.02
   5255   58.04     806    824.7     28.39
   5256   58.05     774    791.7     27.82
   5257   58.06     760      766     27.57
   5258   58.07     765    746.7     27.66
   5259   58.08     753    732.9     27.44
   5260   58.09     743    722.8     27.26
   5261   58.10     750    713.8     27.39
   5262   58.11     746    702.2     27.31
   5263   58.12     731    688.6     27.04
   5264   58.13     711    671.5     26.66
   5265   58.14     703    652.7     26.51
   5266   58.15     665    633.7     25.79
   5267   58.16     638      616     25.26
   5268   58.17     621    599.8     24.92
   5269   58.18     585    585.4     24.19
   5270   58.19     593    572.5     24.35
   5271   58.20     565      561     23.77
   5272   58.21     554    550.7     23.54
   5273   58.22     544    540.3     23.32
   5274   58.23     540    532.2     23.24
   5275   58.24     536    524.9     23.15
   5276   58.25     532    519.8     23.07
   5277   58.26     528    514.4     22.98
   5278   58.27     517    509.6     22.74
   5279   58.28     501    505.5     22.38
   5280   58.29     504      502     22.45
   5281   58.30     499      499     22.34
   5282   58.31     501    496.5     22.38
   5283   58.32     482    494.5     21.95
   5284   58.33     484    492.8     22.00
   5285   58.34     494    491.4     22.23
   5286   58.35     492    490.2     22.18
   5287   58.36     483      487     21.98
   5288   58.37     479    486.6     21.89
   5289   58.38     477    486.2     21.84
   5290   58.39     479    485.8     21.89
   5291   58.40     480    485.4     21.91
   5292   58.41     481      485     21.93
   5293   58.42     474    484.5     21.77
   5294   58.43     468      484     21.63
   5295   58.44     482    483.4     21.95
   5296   58.45     465    482.8     21.56
   5297   58.46     481    484.2     21.93
   5298   58.47     476    483.6     21.82
   5299   58.48     461    483.1     21.47
   5300   58.49     482    482.5     21.95
   5301   58.50     471      482     21.70
   5302   58.51     481    481.6     21.93
   5303   58.52     475    481.2     21.79
   5304   58.53     481      481     21.93
   5305   58.54     466    480.8     21.59
   5306   58.55     485    480.7     22.02
   5307   58.56     476    480.7     21.82
   5308   58.57     473    480.9     21.75
   5309   58.58     483    481.2     21.98
   5310   58.59     484    481.6     22.00
   5311   58.60     479    480.3     21.89
   5312   58.61     471    481.3     21.70
   5313   58.62     479    482.7     21.89
   5314   58.63     484    481.5     22.00
   5315   58.64     484    483.6     22.00
   5316   58.65     490    485.3     22.14
   5317   58.66     494    488.6     22.23
   5318   58.67     499    492.5     22.34
   5319   58.68     486    497.3     22.05
   5320   58.69     491    503.1     22.16
   5321   58.70     502      510     22.41
   5322   58.71     516    518.1     22.72
   5323   58.72     522    527.7     22.85
   5324   58.73     528    540.2     22.98
   5325   58.74     551    554.2     23.47
   5326   58.75     554    570.4     23.54
   5327   58.76     567    587.6     23.81
   5328   58.77     579    607.1     24.06
   5329   58.78     605    629.2     24.60
   5330   58.79     631    653.9     25.12
   5331   58.80     649    681.4     25.48
   5332   58.81     679      711     26.06
   5333   58.82     715    741.3     26.74
   5334   58.83     758    768.9     27.53
   5335   58.84     792    789.2     28.14
   5336   58.85     817    798.3     28.58
   5337   58.86     793    792.4     28.16
   5338   58.87     769    774.4     27.73
   5339   58.88     747    749.2     27.33
   5340   58.89     693    721.5     26.32
   5341   58.90     656    694.2     25.61
   5342   58.91     642      668     25.34
   5343   58.92     615    645.2     24.80
   5344   58.93     600    624.7     24.49
   5345   58.94     579    606.4     24.06
   5346   58.95     568      590     23.83
   5347   58.96     554    575.5     23.54
   5348   58.97     545    562.6     23.35
   5349   58.98     553    551.2     23.52
   5350   58.99     542    541.3     23.28
   5351   59.00     527    532.8     22.96
   5352   59.01     519    525.5     22.78
   5353   59.02     505    519.4     22.47
   5354   59.03     520    514.4     22.80
   5355   59.04     525    510.3     22.91
   5356   59.05     522    507.1     22.85
   5357   59.06     516    504.6     22.72
   5358   59.07     513    503.8     22.65
   5359   59.08     515    502.7     22.69
   5360   59.09     522    500.9     22.85
   5361   59.10     513      501     22.65
   5362   59.11     519    501.5     22.78
   5363   59.12     515    502.6     22.69
   5364   59.13     515    504.1     22.69
   5365   59.14     532    506.3     23.07
   5366   59.15     532    507.7     23.07
   5367   59.16     540    511.5     23.24
   5368   59.17     543    516.1     23.30
   5369   59.18     556    522.8     23.58
   5370   59.19     553    529.9     23.52
   5371   59.20     569    538.7     23.85
   5372   59.21     572    549.4     23.92
   5373   59.22     583    562.4     24.15
   5374   59.23     605    578.1     24.60
   5375   59.24     622      597     24.94
   5376   59.25     630    619.5     25.10
   5377   59.26     655      646     25.59
   5378   59.27     688      677     26.23
   5379   59.28     696    712.9     26.38
   5380   59.29     744    755.7     27.28
   5381   59.30     792    803.2     28.14
   5382   59.31     819    857.3     28.62
   5383   59.32     877    918.5     29.61
   5384   59.33     932    987.6     30.53
   5385   59.34    1002   1065.2     31.65
   5386   59.35    1098     1151     33.14
   5387   59.36    1200   1244.9     34.64
   5388   59.37    1319   1338.8     36.32
   5389   59.38    1453   1423.6     38.12
   5390   59.39    1551   1484.4     39.38
   5391   59.40    1582   1507.2     39.77
   5392   59.41    1567   1486.7     39.59
   5393   59.42    1488   1430.4     38.57
   5394   59.43    1365   1353.8     36.95
   5395   59.44    1237   1271.4     35.17
   5396   59.45    1163   1192.9     34.10
   5397   59.46    1063   1122.9     32.60
   5398   59.47     995     1063     31.54
   5399   59.48     937   1013.4     30.61
   5400   59.49     929    973.5     30.48
   5401   59.50     887    943.1     29.78
   5402   59.51     886    921.6     29.77
   5403   59.52     873    907.4     29.55
   5404   59.53     870    902.8     29.50
   5405   59.54     889    905.2     29.82
   5406   59.55     914    912.7     30.23
   5407   59.56     940    921.5     30.66
   5408   59.57     971    926.2     31.16
   5409   59.58     984    920.9     31.37
   5410   59.59     950    902.5     30.82
   5411   59.60     901    872.1     30.02
   5412   59.61     858    834.3     29.29
   5413   59.62     796    794.3     28.21
   5414   59.63     764    755.6     27.64
   5415   59.64     711    720.1     26.66
   5416   59.65     675    688.2     25.98
   5417   59.66     651    659.9     25.51
   5418   59.67     630    634.9     25.10
   5419   59.68     610    611.9     24.70
   5420   59.69     588    592.6     24.25
   5421   59.70     568    575.7     23.83
   5422   59.71     570      561     23.87
   5423   59.72     559    548.3     23.64
   5424   59.73     542    538.8     23.28
   5425   59.74     526    529.7     22.93
   5426   59.75     529    522.1     23.00
   5427   59.76     526    515.7     22.93
   5428   59.77     510    509.2     22.58
   5429   59.78     515    505.1     22.69
   5430   59.79     508    501.9     22.54
   5431   59.80     503    499.3     22.43
   5432   59.81     509    497.3     22.56
   5433   59.82     493    495.8     22.20
   5434   59.83     491    494.7     22.16
   5435   59.84     484    493.9     22.00
   5436   59.85     493    493.4     22.20
   5437   59.86     483    493.1     21.98
   5438   59.87     489    492.9     22.11
   5439   59.88     500    492.9     22.36
   5440   59.89     493    494.2     22.20
   5441   59.90     487    494.4     22.07
   5442   59.91     491    494.6     22.16
   5443   59.92     478    494.7     21.86
   5444   59.93     481    494.8     21.93
   5445   59.94     483    494.9     21.98
   5446   59.95     489    494.9     22.11
   5447   59.96     480    494.8     21.91
   5448   59.97     489    494.7     22.11
   5449   59.98     494    494.6     22.23
   5450   59.99     494    494.5     22.23
   5451   60.00     487    494.5     22.07
   5452   60.01     487    494.6     22.07
   5453   60.02     507    494.8     22.52
   5454   60.03     496    495.1     22.27
   5455   60.04     486    495.7     22.05
   5456   60.05     505    496.5     22.47
   5457   60.06     502    497.5     22.41
   5458   60.07     510      498     22.58
   5459   60.08     520      500     22.80
   5460   60.09     511    502.6     22.61
   5461   60.10     522      505     22.85
   5462   60.11     522    509.3     22.85
   5463   60.12     528    514.8     22.98
   5464   60.13     532    521.6     23.07
   5465   60.14     537    528.7     23.17
   5466   60.15     546      539     23.37
   5467   60.16     555    551.4     23.56
   5468   60.17     583    565.9     24.15
   5469   60.18     572      583     23.92
   5470   60.19     597    602.8     24.43
   5471   60.20     624    625.6     24.98
   5472   60.21     637    653.6     25.24
   5473   60.22     646    683.4     25.42
   5474   60.23     697    717.3     26.40
   5475   60.24     732    755.5     27.06
   5476   60.25     766    798.1     27.68
   5477   60.26     813    844.9     28.51
   5478   60.27     873    894.7     29.55
   5479   60.28     933    944.2     30.55
   5480   60.29    1020    987.4     31.94
   5481   60.30    1052     1016     32.43
   5482   60.31    1060     1023     32.56
   5483   60.32    1049   1005.4     32.39
   5484   60.33     987    969.7     31.42
   5485   60.34     914    923.4     30.23
   5486   60.35     869    871.7     29.48
   5487   60.36     798    823.4     28.25
   5488   60.37     734    778.8     27.09
   5489   60.38     706    738.5     26.57
   5490   60.39     662    702.5     25.73
   5491   60.40     639    670.5     25.28
   5492   60.41     623    642.2     24.96
   5493   60.42     602    617.2     24.54
   5494   60.43     582    595.3     24.12
   5495   60.44     579    576.3     24.06
   5496   60.45     553    559.8     23.52
   5497   60.46     540    545.7     23.24
   5498   60.47     539    533.8     23.22
   5499   60.48     519    523.7     22.78
   5500   60.49     522    515.3     22.85
   5501   60.50     507    508.5     22.52
   5502   60.51     505    502.8     22.47
   5503   60.52     500    498.3     22.36
   5504   60.53     499    494.6     22.34
   5505   60.54     501    491.8     22.38
   5506   60.55     498    488.5     22.32
   5507   60.56     494      487     22.23
   5508   60.57     494    485.9     22.23
   5509   60.58     486    485.3     22.05
   5510   60.59     485      485     22.02
   5511   60.60     487    485.2     22.07
   5512   60.61     481    485.7     21.93
   5513   60.62     496    486.7     22.27
   5514   60.63     497    488.1     22.29
   5515   60.64     497    490.1     22.29
   5516   60.65     497    492.8     22.29
   5517   60.66     501    496.2     22.38
   5518   60.67     503    500.5     22.43
   5519   60.68     507    505.8     22.52
   5520   60.69     510    512.2     22.58
   5521   60.70     518      520     22.76
   5522   60.71     523    530.4     22.87
   5523   60.72     528    541.3     22.98
   5524   60.73     543    555.2     23.30
   5525   60.74     559    569.9     23.64
   5526   60.75     564    586.8     23.75
   5527   60.76     588    605.9     24.25
   5528   60.77     596    627.5     24.41
   5529   60.78     614    651.8     24.78
   5530   60.79     639    678.9     25.28
   5531   60.80     670    708.8     25.88
   5532   60.81     709    740.6     26.63
   5533   60.82     753    772.4     27.44
   5534   60.83     812    800.7     28.50
   5535   60.84     823    820.4     28.69
   5536   60.85     843    826.8     29.03
   5537   60.86     830      818     28.81
   5538   60.87     804    796.6     28.35
   5539   60.88     761    767.5     27.59
   5540   60.89     719    735.5     26.81
   5541   60.90     669      704     25.87
   5542   60.91     635    674.5     25.20
   5543   60.92     623    647.7     24.96
   5544   60.93     593    623.5     24.35
   5545   60.94     569      602     23.85
   5546   60.95     568    582.7     23.83
   5547   60.96     545      567     23.35
   5548   60.97     535    552.2     23.13
   5549   60.98     522    539.2     22.85
   5550   60.99     521      528     22.83
   5551   61.00     509    518.4     22.56
   5552   61.01     504    510.2     22.45
   5553   61.02     489    503.3     22.11
   5554   61.03     487    496.4     22.07
   5555   61.04     479    491.8     21.89
   5556   61.05     481    486.8     21.93
   5557   61.06     462    483.8     21.49
   5558   61.07     464    481.4     21.54
   5559   61.08     453    479.5     21.28
   5560   61.09     458    477.8     21.40
   5561   61.10     472    476.4     21.73
   5562   61.11     471    475.1     21.70
   5563   61.12     463      474     21.52
   5564   61.13     463    472.9     21.52
   5565   61.14     451    471.9     21.24
   5566   61.15     458      471     21.40
   5567   61.16     457    470.1     21.38
   5568   61.17     455    469.2     21.33
   5569   61.18     452    468.3     21.26
   5570   61.19     447    467.5     21.14
   5571   61.20     449    466.7     21.19
   5572   61.21     447      466     21.14
   5573   61.22     449    465.3     21.19
   5574   61.23     453    464.7     21.28
   5575   61.24     451    464.1     21.24
   5576   61.25     448    463.5     21.17
   5577   61.26     449      463     21.19
   5578   61.27     450    462.6     21.21
   5579   61.28     449    461.1     21.19
   5580   61.29     441    460.9     21.00
   5581   61.30     430    460.6     20.74
   5582   61.31     453    461.4     21.28
   5583   61.32     437    461.3     20.90
   5584   61.33     439    461.1     20.95
   5585   61.34     451      461     21.24
   5586   61.35     442    460.9     21.02
   5587   61.36     434    460.8     20.83
   5588   61.37     441    460.7     21.00
   5589   61.38     441    460.6     21.00
   5590   61.39     449    460.5     21.19
   5591   61.40     440    460.5     20.98
   5592   61.41     439    462.4     20.95
   5593   61.42     440    462.5     20.98
   5594   61.43     449    462.5     21.19
   5595   61.44     438    461.6     20.93
   5596   61.45     440    461.7     20.98
   5597   61.46     437    461.8     20.90
   5598   61.47     442      462     21.02
   5599   61.48     437    462.2     20.90
   5600   61.49     437    460.5     20.90
   5601   61.50     435    460.8     20.86
   5602   61.51     443    461.3     21.05
   5603   61.52     453    461.8     21.28
   5604   61.53     455    462.4     21.33
   5605   61.54     450    463.2     21.21
   5606   61.55     451    464.1     21.24
   5607   61.56     457    465.2     21.38
   5608   61.57     444    466.5     21.07
   5609   61.58     446      468     21.12
   5610   61.59     451    469.8     21.24
   5611   61.60     450    471.9     21.21
   5612   61.61     456    474.4     21.35
   5613   61.62     459    477.2     21.42
   5614   61.63     466    480.4     21.59
   5615   61.64     464      484     21.54
   5616   61.65     471    488.2     21.70
   5617   61.66     464    492.8     21.54
   5618   61.67     490    500.8     22.14
   5619   61.68     477    508.4     21.84
   5620   61.69     499    515.6     22.34
   5621   61.70     510    523.4     22.58
   5622   61.71     525    531.6     22.91
   5623   61.72     536    539.7     23.15
   5624   61.73     553    546.5     23.52
   5625   61.74     553    551.2     23.52
   5626   61.75     552    552.6     23.49
   5627   61.76     551      551     23.47
   5628   61.77     546      547     23.37
   5629   61.78     525    542.8     22.91
   5630   61.79     523    537.4     22.87
   5631   61.80     511    532.2     22.61
   5632   61.81     500    527.4     22.36
   5633   61.82     506    523.2     22.49
   5634   61.83     506    519.3     22.49
   5635   61.84     499    515.8     22.34
   5636   61.85     506    512.5     22.49
   5637   61.86     504    509.4     22.45
   5638   61.87     491    506.4     22.16
   5639   61.88     498    503.5     22.32
   5640   61.89     484    500.7     22.00
   5641   61.90     484    499.5     22.00
   5642   61.91     499    497.2     22.34
   5643   61.92     499    495.2     22.34
   5644   61.93     500    493.3     22.36
   5645   61.94     484    491.7     22.00
   5646   61.95     502    490.3     22.41
   5647   61.96     491    489.2     22.16
   5648   61.97     483    488.4     21.98
   5649   61.98     497    487.9     22.29
   5650   61.99     499    486.6     22.34
   5651   62.00     498    486.9     22.32
   5652   62.01     498    487.6     22.32
   5653   62.02     501    488.7     22.38
   5654   62.03     504    490.4     22.45
   5655   62.04     504    492.6     22.45
   5656   62.05     512    495.5     22.63
   5657   62.06     511    496.7     22.61
   5658   62.07     511    501.8     22.61
   5659   62.08     514    506.7     22.67
   5660   62.09     527    514.3     22.96
   5661   62.10     538    523.5     23.19
   5662   62.11     551    534.4     23.47
   5663   62.12     553    547.3     23.52
   5664   62.13     574    563.4     23.96
   5665   62.14     580    581.1     24.08
   5666   62.15     593    601.5     24.35
   5667   62.16     615    626.3     24.80
   5668   62.17     633    653.1     25.16
   5669   62.18     665    683.6     25.79
   5670   62.19     699    717.1     26.44
   5671   62.20     722    755.9     26.87
   5672   62.21     771    799.3     27.77
   5673   62.22     804    847.7     28.35
   5674   62.23     885      902     29.75
   5675   62.24     947    958.5     30.77
   5676   62.25    1009   1014.9     31.76
   5677   62.26    1082     1065     32.89
   5678   62.27    1153   1100.6     33.96
   5679   62.28    1159   1113.9     34.04
   5680   62.29    1150   1102.4     33.91
   5681   62.30    1093   1070.1     33.06
   5682   62.31    1021   1025.4     31.95
   5683   62.32     959    976.5     30.97
   5684   62.33     912    929.2     30.20
   5685   62.34     838    886.5     28.95
   5686   62.35     803    849.5     28.34
   5687   62.36     779    818.3     27.91
   5688   62.37     757      793     27.51
   5689   62.38     741    773.3     27.22
   5690   62.39     734    758.9     27.09
   5691   62.40     727    749.6     26.96
   5692   62.41     720    744.9     26.83
   5693   62.42     744    743.9     27.28
   5694   62.43     760      746     27.57
   5695   62.44     747    746.5     27.33
   5696   62.45     767    743.4     27.69
   5697   62.46     768      733     27.71
   5698   62.47     744      717     27.28
   5699   62.48     713    695.9     26.70
   5700   62.49     683    672.3     26.13
   5701   62.50     649    648.6     25.48
   5702   62.51     620    626.4     24.90
   5703   62.52     602    606.2     24.54
   5704   62.53     596    588.2     24.41
   5705   62.54     581    572.3     24.10
   5706   62.55     565    558.2     23.77
   5707   62.56     546    545.8     23.37
   5708   62.57     551    534.9     23.47
   5709   62.58     532    525.3     23.07
   5710   62.59     519      517     22.78
   5711   62.60     509    509.7     22.56
   5712   62.61     512    503.5     22.63
   5713   62.62     494    499.6     22.23
   5714   62.63     505    495.3     22.47
   5715   62.64     492      493     22.18
   5716   62.65     501    491.2     22.38
   5717   62.66     493    489.1     22.20
   5718   62.67     487    487.6     22.07
   5719   62.68     494    486.4     22.23
   5720   62.69     482    485.7     21.95
   5721   62.70     489    484.2     22.11
   5722   62.71     489    484.1     22.11
   5723   62.72     487    484.3     22.07
   5724   62.73     492    484.6     22.18
   5725   62.74     494      485     22.23
   5726   62.75     487    485.5     22.07
   5727   62.76     492      486     22.18
   5728   62.77     487    486.5     22.07
   5729   62.78     509    486.9     22.56
   5730   62.79     496    488.5     22.27
   5731   62.80     494      489     22.23
   5732   62.81     499    489.4     22.34
   5733   62.82     498    489.7     22.32
   5734   62.83     493    490.1     22.20
   5735   62.84     499    490.4     22.34
   5736   62.85     494    492.8     22.23
   5737   62.86     492    493.4     22.18
   5738   62.87     517    494.1     22.74
   5739   62.88     505    497.7     22.47
   5740   62.89     514    499.3     22.67
   5741   62.90     521    501.4     22.83
   5742   62.91     525      504     22.91
   5743   62.92     529    507.2     23.00
   5744   62.93     543    509.9     23.30
   5745   62.94     537    514.9     23.17
   5746   62.95     556    520.8     23.58
   5747   62.96     554    528.1     23.54
   5748   62.97     564    536.7     23.75
   5749   62.98     580      547     24.08
   5750   62.99     586    559.3     24.21
   5751   63.00     595    572.5     24.39
   5752   63.01     615    589.5     24.80
   5753   63.02     617    609.3     24.84
   5754   63.03     643      632     25.36
   5755   63.04     644      658     25.38
   5756   63.05     689    687.5     26.25
   5757   63.06     724      721     26.91
   5758   63.07     747    758.8     27.33
   5759   63.08     785    801.4     28.02
   5760   63.09     824      848     28.71
   5761   63.10     863    901.4     29.38
   5762   63.11     935    962.8     30.58
   5763   63.12    1008   1026.3     31.75
   5764   63.13    1094   1091.3     33.08
   5765   63.14    1211   1150.7     34.80
   5766   63.15    1265   1197.5     35.57
   5767   63.16    1316   1219.1     36.28
   5768   63.17    1320   1211.1     36.33
   5769   63.18    1256     1178     35.44
   5770   63.19    1200   1125.1     34.64
   5771   63.20    1110   1062.5     33.32
   5772   63.21    1006      998     31.72
   5773   63.22     926    936.3     30.43
   5774   63.23     858    879.5     29.29
   5775   63.24     800    828.2     28.28
   5776   63.25     766    782.3     27.68
   5777   63.26     731    741.3     27.04
   5778   63.27     700    704.7     26.46
   5779   63.28     681    672.4     26.10
   5780   63.29     654    643.8     25.57
   5781   63.30     642    618.8     25.34
   5782   63.31     613      597     24.76
   5783   63.32     615    578.2     24.80
   5784   63.33     604    562.2     24.58
   5785   63.34     581    548.6     24.10
   5786   63.35     571    537.3     23.90
   5787   63.36     561    527.8     23.69
   5788   63.37     548    520.1     23.41
   5789   63.38     555    513.9     23.56
   5790   63.39     554      509     23.54
   5791   63.40     544      505     23.32
   5792   63.41     540    502.6     23.24
   5793   63.42     531    501.2     23.04
   5794   63.43     534    500.5     23.11
   5795   63.44     534    500.6     23.11
   5796   63.45     536    501.6     23.15
   5797   63.46     534    503.3     23.11
   5798   63.47     542      506     23.28
   5799   63.48     534    509.7     23.11
   5800   63.49     540    514.5     23.24
   5801   63.50     540    520.5     23.24
   5802   63.51     544      528     23.32
   5803   63.52     550    537.2     23.45
   5804   63.53     570    548.1     23.87
   5805   63.54     572    561.1     23.92
   5806   63.55     594    576.3     24.37
   5807   63.56     614    593.9     24.78
   5808   63.57     613    614.1     24.76
   5809   63.58     635    637.2     25.20
   5810   63.59     659    663.4     25.67
   5811   63.60     688      693     26.23
   5812   63.61     704    726.4     26.53
   5813   63.62     755    763.7     27.48
   5814   63.63     791    805.3     28.12
   5815   63.64     823    850.9     28.69
   5816   63.65     891    899.5     29.85
   5817   63.66     941    948.1     30.68
   5818   63.67    1011    993.5     31.80
   5819   63.68    1059   1024.7     32.54
   5820   63.69    1091   1038.5     33.03
   5821   63.70    1080   1031.1     32.86
   5822   63.71    1052   1005.2     32.43
   5823   63.72     996    967.5     31.56
   5824   63.73     926      925     30.43
   5825   63.74     874    882.9     29.56
   5826   63.75     823    844.3     28.69
   5827   63.76     780    810.3     27.93
   5828   63.77     768    781.4     27.71
   5829   63.78     720    757.4     26.83
   5830   63.79     715    736.6     26.74
   5831   63.80     708      722     26.61
   5832   63.81     692    711.6     26.31
   5833   63.82     710    705.1     26.65
   5834   63.83     696    702.9     26.38
   5835   63.84     709    701.2     26.63
   5836   63.85     710    699.1     26.65
   5837   63.86     723    695.3     26.89
   5838   63.87     695    685.8     26.36
   5839   63.88     697    671.5     26.40
   5840   63.89     675    653.6     25.98
   5841   63.90     651    633.2     25.51
   5842   63.91     610    613.9     24.70
   5843   63.92     596    595.8     24.41
   5844   63.93     578    579.4     24.04
   5845   63.94     570    564.7     23.87
   5846   63.95     547    551.7     23.39
   5847   63.96     535    540.2     23.13
   5848   63.97     530    529.9     23.02
   5849   63.98     535    520.8     23.13
   5850   63.99     522    512.8     22.85
   5851   64.00     521    505.7     22.83
   5852   64.01     509    499.4     22.56
   5853   64.02     503    493.9     22.43
   5854   64.03     500      489     22.36
   5855   64.04     491    484.8     22.16
   5856   64.05     485    481.2     22.02
   5857   64.06     491    478.1     22.16
   5858   64.07     473    475.4     21.75
   5859   64.08     491    473.1     22.16
   5860   64.09     475    471.1     21.79
   5861   64.10     483    469.4     21.98
   5862   64.11     471    466.9     21.70
   5863   64.12     477    465.8     21.84
   5864   64.13     479    464.8     21.89
   5865   64.14     476      464     21.82
   5866   64.15     472    463.4     21.73
   5867   64.16     473    464.1     21.75
   5868   64.17     466    463.8     21.59
   5869   64.18     470    463.5     21.68
   5870   64.19     466    463.4     21.59
   5871   64.20     453    463.4     21.28
   5872   64.21     464    463.8     21.54
   5873   64.22     464    464.2     21.54
   5874   64.23     465    464.6     21.56
   5875   64.24     467    465.2     21.61
   5876   64.25     466    465.8     21.59
   5877   64.26     466    466.5     21.59
   5878   64.27     466    468.3     21.59
   5879   64.28     473    469.2     21.75
   5880   64.29     462    470.2     21.49
   5881   64.30     466    471.2     21.59
   5882   64.31     479    472.3     21.89
   5883   64.32     475    473.4     21.79
   5884   64.33     472    472.6     21.73
   5885   64.34     475    473.9     21.79
   5886   64.35     476    475.4     21.82
   5887   64.36     486      477     22.05
   5888   64.37     480    478.9     21.91
   5889   64.38     480    481.1     21.91
   5890   64.39     481    483.7     21.93
   5891   64.40     491    486.8     22.16
   5892   64.41     482    490.5     21.95
   5893   64.42     490    494.9     22.14
   5894   64.43     508    500.1     22.54
   5895   64.44     505    506.1     22.47
   5896   64.45     513    513.1     22.65
   5897   64.46     520    521.1     22.80
   5898   64.47     527    530.2     22.96
   5899   64.48     541    539.3     23.26
   5900   64.49     550    551.2     23.45
   5901   64.50     566    564.4     23.79
   5902   64.51     562    580.3     23.71
   5903   64.52     595    597.1     24.39
   5904   64.53     623    612.1     24.96
   5905   64.54     643    628.2     25.36
   5906   64.55     663    640.6     25.75
   5907   64.56     663    647.5     25.75
   5908   64.57     680    647.3     26.08
   5909   64.58     669    640.3     25.87
   5910   64.59     635    628.4     25.20
   5911   64.60     613    613.9     24.76
   5912   64.61     593    598.7     24.35
   5913   64.62     570    585.1     23.87
   5914   64.63     574    571.6     23.96
   5915   64.64     562    559.4     23.71
   5916   64.65     542    548.4     23.28
   5917   64.66     539    538.5     23.22
   5918   64.67     534    529.6     23.11
   5919   64.68     511    521.5     22.61
   5920   64.69     522    514.3     22.85
   5921   64.70     513    507.8     22.65
   5922   64.71     505    501.9     22.47
   5923   64.72     510    496.8     22.58
   5924   64.73     511    492.2     22.61
   5925   64.74     498    488.2     22.32
   5926   64.75     498    484.8     22.32
   5927   64.76     487    481.9     22.07
   5928   64.77     505    479.6     22.47
   5929   64.78     496    479.1     22.27
   5930   64.79     502    477.8     22.41
   5931   64.80     490    474.6     22.14
   5932   64.81     491    475.5     22.16
   5933   64.82     496    475.9     22.27
   5934   64.83     501    476.8     22.38
   5935   64.84     485    478.1     22.02
   5936   64.85     496    479.8     22.27
   5937   64.86     488    482.2     22.09
   5938   64.87     506    483.9     22.49
   5939   64.88     508    487.6     22.54
   5940   64.89     518    492.1     22.76
   5941   64.90     514    497.5     22.67
   5942   64.91     513    503.8     22.65
   5943   64.92     522    511.3     22.85
   5944   64.93     529      520     23.00
   5945   64.94     544      530     23.32
   5946   64.95     540    541.6     23.24
   5947   64.96     564    554.8     23.75
   5948   64.97     575    569.8     23.98
   5949   64.98     592    586.9     24.33
   5950   64.99     600    607.1     24.49
   5951   65.00     629    630.1     25.08
   5952   65.01     654    654.6     25.57
   5953   65.02     669    681.9     25.87
   5954   65.03     706      712     26.57
   5955   65.04     746    743.4     27.31
   5956   65.05     788    777.1     28.07
   5957   65.06     860    809.2     29.33
   5958   65.07     877    835.9     29.61
   5959   65.08     908    852.6     30.13
   5960   65.09     914    856.4     30.23
   5961   65.10     894    848.8     29.90
   5962   65.11     860    830.7     29.33
   5963   65.12     821    807.9     28.65
   5964   65.13     788    784.5     28.07
   5965   65.14     765    762.9     27.66
   5966   65.15     739    744.6     27.18
   5967   65.16     717    730.1     26.78
   5968   65.17     707    719.5     26.59
   5969   65.18     699    712.8     26.44
   5970   65.19     693      710     26.32
   5971   65.20     682    710.7     26.12
   5972   65.21     710    714.7     26.65
   5973   65.22     707    721.2     26.59
   5974   65.23     738    728.7     27.17
   5975   65.24     757    734.7     27.51
   5976   65.25     765    736.5     27.66
   5977   65.26     761    730.3     27.59
   5978   65.27     752      719     27.42
   5979   65.28     725    700.6     26.93
   5980   65.29     692    678.7     26.31
   5981   65.30     665    655.6     25.79
   5982   65.31     629    633.3     25.08
   5983   65.32     599    612.6     24.47
   5984   65.33     595    593.7     24.39
   5985   65.34     581    576.8     24.10
   5986   65.35     568    561.7     23.83
   5987   65.36     559    548.3     23.64
   5988   65.37     546    536.3     23.37
   5989   65.38     539    525.8     23.22
   5990   65.39     538    516.4     23.19
   5991   65.40     521    508.3     22.83
   5992   65.41     512    501.1     22.63
   5993   65.42     511      495     22.61
   5994   65.43     501    489.7     22.38
   5995   65.44     506    485.2     22.49
   5996   65.45     500    482.7     22.36
   5997   65.46     502    478.5     22.41
   5998   65.47     498    476.3     22.32
   5999   65.48     499    474.5     22.34
   6000   65.49     490    473.1     22.14
   6001   65.50     491      472     22.16
   6002   65.51     498    471.3     22.32
   6003   65.52     480    470.8     21.91
   6004   65.53     476    470.6     21.82
   6005   65.54     484    470.5     22.00
   6006   65.55     480    470.6     21.91
   6007   65.56     484    470.9     22.00
   6008   65.57     490    471.2     22.14
   6009   65.58     489    471.7     22.11
   6010   65.59     489    472.2     22.11
   6011   65.60     492    472.8     22.18
   6012   65.61     479    473.5     21.89
   6013   65.62     486    474.2     22.05
   6014   65.63     490    476.4     22.14
   6015   65.64     507    477.4     22.52
   6016   65.65     495    478.6     22.25
   6017   65.66     507    478.9     22.52
   6018   65.67     502    480.6     22.41
   6019   65.68     505    483.5     22.47
   6020   65.69     507    485.9     22.52
   6021   65.70     510    488.8     22.58
   6022   65.71     500    492.6     22.36
   6023   65.72     519    497.1     22.78
   6024   65.73     517    502.5     22.74
   6025   65.74     523    508.9     22.87
   6026   65.75     537    516.7     23.17
   6027   65.76     534    525.9     23.11
   6028   65.77     557    536.8     23.60
   6029   65.78     574    549.6     23.96
   6030   65.79     570    564.6     23.87
   6031   65.80     593    581.8     24.35
   6032   65.81     616    600.5     24.82
   6033   65.82     630    623.3     25.10
   6034   65.83     643    649.2     25.36
   6035   65.84     673    678.2     25.94
   6036   65.85     696    710.9     26.38
   6037   65.86     721    747.4     26.85
   6038   65.87     762      787     27.60
   6039   65.88     799    832.4     28.27
   6040   65.89     848    882.3     29.12
   6041   65.90     923    934.3     30.38
   6042   65.91     998    992.3     31.59
   6043   65.92    1075   1046.5     32.79
   6044   65.93    1158   1092.6     34.03
   6045   65.94    1205   1122.6     34.71
   6046   65.95    1221   1129.9     34.94
   6047   65.96    1216   1111.6     34.87
   6048   65.97    1131   1074.1     33.63
   6049   65.98    1050   1023.7     32.40
   6050   65.99     990    968.1     31.46
   6051   66.00     900    912.5     30.00
   6052   66.01     855      860     29.24
   6053   66.02     791    811.9     28.12
   6054   66.03     765    768.4     27.66
   6055   66.04     709    729.3     26.63
   6056   66.05     681    694.4     26.10
   6057   66.06     655    663.3     25.59
   6058   66.07     618    635.7     24.86
   6059   66.08     617    611.3     24.84
   6060   66.09     608    589.9     24.66
   6061   66.10     593    571.3     24.35
   6062   66.11     571    555.3     23.90
   6063   66.12     572    541.5     23.92
   6064   66.13     557    529.9     23.60
   6065   66.14     548    520.2     23.41
   6066   66.15     524    512.1     22.89
   6067   66.16     541    505.6     23.26
   6068   66.17     530    500.4     23.02
   6069   66.18     533    496.5     23.09
   6070   66.19     522    493.5     22.85
   6071   66.20     520    491.6     22.80
   6072   66.21     517    490.5     22.74
   6073   66.22     513    490.4     22.65
   6074   66.23     516      491     22.72
   6075   66.24     508    492.6     22.54
   6076   66.25     508    495.1     22.54
   6077   66.26     528    498.6     22.98
   6078   66.27     515    503.1     22.69
   6079   66.28     523    508.9     22.87
   6080   66.29     534    515.9     23.11
   6081   66.30     541    524.4     23.26
   6082   66.31     551    534.4     23.47
   6083   66.32     554      546     23.54
   6084   66.33     564    559.5     23.75
   6085   66.34     567      575     23.81
   6086   66.35     588    592.6     24.25
   6087   66.36     596    612.4     24.41
   6088   66.37     605    634.7     24.60
   6089   66.38     642    659.7     25.34
   6090   66.39     652    688.6     25.53
   6091   66.40     695    719.5     26.36
   6092   66.41     729    753.3     27.00
   6093   66.42     775    789.1     27.84
   6094   66.43     820    825.2     28.64
   6095   66.44     885    858.2     29.75
   6096   66.45     925    883.6     30.41
   6097   66.46     938    896.2     30.63
   6098   66.47     946    893.1     30.76
   6099   66.48     914      875     30.23
   6100   66.49     876    845.7     29.60
   6101   66.50     819    810.5     28.62
   6102   66.51     763    773.6     27.62
   6103   66.52     703    737.7     26.51
   6104   66.53     685    704.4     26.17
   6105   66.54     652    673.9     25.53
   6106   66.55     629    646.4     25.08
   6107   66.56     594    623.2     24.37
   6108   66.57     588    601.2     24.25
   6109   66.58     561    581.7     23.69
   6110   66.59     560    564.4     23.66
   6111   66.60     533      549     23.09
   6112   66.61     523    535.6     22.87
   6113   66.62     516    523.8     22.72
   6114   66.63     510    511.6     22.58
   6115   66.64     493    502.9     22.20
   6116   66.65     491    495.4     22.16
   6117   66.66     492    488.9     22.18
   6118   66.67     490    483.5     22.14
   6119   66.68     485    478.9     22.02
   6120   66.69     484    474.9     22.00
   6121   66.70     474    471.6     21.77
   6122   66.71     471    468.8     21.70
   6123   66.72     467    466.4     21.61
   6124   66.73     460    464.4     21.45
   6125   66.74     466    462.6     21.59
   6126   66.75     457    461.1     21.38
   6127   66.76     458    459.8     21.40
   6128   66.77     470    458.6     21.68
   6129   66.78     468    456.3     21.63
   6130   66.79     454    455.6     21.31
   6131   66.80     451      455     21.24
   6132   66.81     453    454.5     21.28
   6133   66.82     451      454     21.24
   6134   66.83     458    453.6     21.40
   6135   66.84     448    453.2     21.17
   6136   66.85     447    452.9     21.14
   6137   66.86     454    452.6     21.31
   6138   66.87     454    452.4     21.31
   6139   66.88     443    452.2     21.05
   6140   66.89     448      452     21.17
   6141   66.90     437    451.9     20.90
   6142   66.91     450    451.9     21.21
   6143   66.92     451    451.9     21.24
   6144   66.93     440      452     20.98
   6145   66.94     444    452.1     21.07
   6146   66.95     445    452.3     21.10
   6147   66.96     444    452.4     21.07
   6148   66.97     430    452.6     20.74
   6149   66.98     442    452.8     21.02
   6150   66.99     445    453.1     21.10
   6151   67.00     443    453.4     21.05
   6152   67.01     454    453.8     21.31
   6153   67.02     447    452.4     21.14
   6154   67.03     445      453     21.10
   6155   67.04     441    453.8     21.00
   6156   67.05     443    453.8     21.05
   6157   67.06     453    455.1     21.28
   6158   67.07     452    458.6     21.26
   6159   67.08     452    460.4     21.26
   6160   67.09     455    462.7     21.33
   6161   67.10     458    465.3     21.40
   6162   67.11     464    468.5     21.54
   6163   67.12     475    472.3     21.79
   6164   67.13     477    477.8     21.84
   6165   67.14     472    483.1     21.73
   6166   67.15     477    489.2     21.84
   6167   67.16     493    496.3     22.20
   6168   67.17     499    504.4     22.34
   6169   67.18     507    513.7     22.52
   6170   67.19     525    524.2     22.91
   6171   67.20     526      536     22.93
   6172   67.21     545    549.2     23.35
   6173   67.22     553      564     23.52
   6174   67.23     553    580.5     23.52
   6175   67.24     577    598.8     24.02
   6176   67.25     599    618.1     24.47
   6177   67.26     622    640.3     24.94
   6178   67.27     652    663.2     25.53
   6179   67.28     686    687.9     26.19
   6180   67.29     722    711.5     26.87
   6181   67.30     753    732.4     27.44
   6182   67.31     791    745.1     28.12
   6183   67.32     790    748.1     28.11
   6184   67.33     780    740.6     27.93
   6185   67.34     756    725.8     27.50
   6186   67.35     729    704.2     27.00
   6187   67.36     686    680.3     26.19
   6188   67.37     652    656.3     25.53
   6189   67.38     613    633.6     24.76
   6190   67.39     596    612.7     24.41
   6191   67.40     577    593.8     24.02
   6192   67.41     558    576.8     23.62
   6193   67.42     547    561.6     23.39
   6194   67.43     536      548     23.15
   6195   67.44     523    535.9     22.87
   6196   67.45     525    525.3     22.91
   6197   67.46     516    515.9     22.72
   6198   67.47     512    507.7     22.63
   6199   67.48     495    500.7     22.25
   6200   67.49     504    494.8     22.45
   6201   67.50     498    489.8     22.32
   6202   67.51     505    485.7     22.47
   6203   67.52     492    482.5     22.18
   6204   67.53     489      480     22.11
   6205   67.54     490    478.3     22.14
   6206   67.55     500    476.1     22.36
   6207   67.56     497    475.9     22.29
   6208   67.57     506    476.4     22.49
   6209   67.58     487    479.7     22.07
   6210   67.59     512    481.7     22.63
   6211   67.60     509    484.6     22.56
   6212   67.61     519    488.3     22.78
   6213   67.62     520      493     22.80
   6214   67.63     513    498.8     22.65
   6215   67.64     521    505.8     22.83
   6216   67.65     516    514.1     22.72
   6217   67.66     528    523.9     22.98
   6218   67.67     545    535.4     23.35
   6219   67.68     565    548.6     23.77
   6220   67.69     575    563.8     23.98
   6221   67.70     593      581     24.35
   6222   67.71     586    600.5     24.21
   6223   67.72     616    622.5     24.82
   6224   67.73     639    647.1     25.28
   6225   67.74     657    674.6     25.63
   6226   67.75     679    705.3     26.06
   6227   67.76     712    739.2     26.68
   6228   67.77     742    776.4     27.24
   6229   67.78     797    816.5     28.23
   6230   67.79     860    860.6     29.33
   6231   67.80     926    900.8     30.43
   6232   67.81     963      935     31.03
   6233   67.82    1035    957.9     32.17
   6234   67.83    1008    965.2     31.75
   6235   67.84    1007    955.9     31.73
   6236   67.85     962    932.7     31.02
   6237   67.86     906    900.8     30.10
   6238   67.87     841    865.4     29.00
   6239   67.88     810    831.6     28.46
   6240   67.89     757    799.2     27.51
   6241   67.90     738    770.2     27.17
   6242   67.91     705    745.2     26.55
   6243   67.92     700    723.9     26.46
   6244   67.93     680    706.4     26.08
   6245   67.94     663    692.3     25.75
   6246   67.95     666    681.2     25.81
   6247   67.96     661    672.7     25.71
   6248   67.97     658    665.9     25.65
   6249   67.98     672    659.3     25.92
   6250   67.99     670      649     25.88
   6251   68.00     667    639.2     25.83
   6252   68.01     644    626.7     25.38
   6253   68.02     625    613.4     25.00
   6254   68.03     608    597.7     24.66
   6255   68.04     588      582     24.25
   6256   68.05     570    568.1     23.87
   6257   68.06     563    554.5     23.73
   6258   68.07     545    542.2     23.35
   6259   68.08     536    531.2     23.15
   6260   68.09     526    521.4     22.93
   6261   68.10     517    512.6     22.74
   6262   68.11     505    504.8     22.47
   6263   68.12     502    497.8     22.41
   6264   68.13     490    491.5     22.14
   6265   68.14     481      486     21.93
   6266   68.15     480    481.1     21.91
   6267   68.16     465    476.7     21.56
   6268   68.17     478    472.9     21.86
   6269   68.18     465    469.5     21.56
   6270   68.19     468    466.5     21.63
   6271   68.20     454    462.8     21.31
   6272   68.21     466    460.8     21.59
   6273   68.22     462    459.3     21.49
   6274   68.23     450      458     21.21
   6275   68.24     455      457     21.33
   6276   68.25     453    455.3     21.28
   6277   68.26     447    454.6     21.14
   6278   68.27     448    454.2     21.17
   6279   68.28     452    455.3     21.26
   6280   68.29     447    455.2     21.14
   6281   68.30     447    455.1     21.14
   6282   68.31     453    455.2     21.28
   6283   68.32     444    455.2     21.07
   6284   68.33     447    455.3     21.14
   6285   68.34     443    455.3     21.05
   6286   68.35     445    455.4     21.10
   6287   68.36     448    455.4     21.17
   6288   68.37     453    454.4     21.28
   6289   68.38     446    454.4     21.12
   6290   68.39     459    454.4     21.42
   6291   68.40     443    454.4     21.05
   6292   68.41     457    454.4     21.38
   6293   68.42     458    452.6     21.40
   6294   68.43     457    452.8     21.38
   6295   68.44     446    453.3     21.12
   6296   68.45     452    454.9     21.26
   6297   68.46     444    454.3     21.07
   6298   68.47     450    455.6     21.21
   6299   68.48     464    457.1     21.54
   6300   68.49     449    461.2     21.19
   6301   68.50     452    463.6     21.26
   6302   68.51     461    466.5     21.47
   6303   68.52     466    469.9     21.59
   6304   68.53     461    472.5     21.47
   6305   68.54     482    477.1     21.95
   6306   68.55     478    482.1     21.86
   6307   68.56     466    487.7     21.59
   6308   68.57     487    493.9     22.07
   6309   68.58     490    500.8     22.14
   6310   68.59     493    506.5     22.20
   6311   68.60     502    514.9     22.41
   6312   68.61     503    524.2     22.43
   6313   68.62     519    534.2     22.78
   6314   68.63     520    544.7     22.80
   6315   68.64     535    555.2     23.13
   6316   68.65     565    564.7     23.77
   6317   68.66     571    572.1     23.90
   6318   68.67     584    574.4     24.17
   6319   68.68     575    573.2     23.98
   6320   68.69     580    568.4     24.08
   6321   68.70     560    560.2     23.66
   6322   68.71     540    551.7     23.24
   6323   68.72     526    541.1     22.93
   6324   68.73     510    530.8     22.58
   6325   68.74     496    521.1     22.27
   6326   68.75     498    512.2     22.32
   6327   68.76     494    504.1     22.23
   6328   68.77     481    497.9     21.93
   6329   68.78     486    491.4     22.05
   6330   68.79     469    485.6     21.66
   6331   68.80     463    480.4     21.52
   6332   68.81     456    475.8     21.35
   6333   68.82     471    471.8     21.70
   6334   68.83     468    468.2     21.63
   6335   68.84     464    465.2     21.54
   6336   68.85     457    462.5     21.38
   6337   68.86     444    460.3     21.07
   6338   68.87     472    458.5     21.73
   6339   68.88     461    457.1     21.47
   6340   68.89     457    454.7     21.38
   6341   68.90     454    454.1     21.31
   6342   68.91     455    453.8     21.33
   6343   68.92     448    454.4     21.17
   6344   68.93     453    454.8     21.28
   6345   68.94     454    456.5     21.31
   6346   68.95     451    457.5     21.24
   6347   68.96     469    458.9     21.66
   6348   68.97     459    460.7     21.42
   6349   68.98     463      463     21.52
   6350   68.99     464    465.6     21.54
   6351   69.00     458    468.8     21.40
   6352   69.01     465    472.5     21.56
   6353   69.02     469    476.8     21.66
   6354   69.03     473    481.7     21.75
   6355   69.04     474    487.3     21.77
   6356   69.05     468    493.8     21.63
   6357   69.06     487      501     22.07
   6358   69.07     492    509.1     22.18
   6359   69.08     481    518.3     21.93
   6360   69.09     525    528.6     22.91
   6361   69.10     524      540     22.89
   6362   69.11     543    552.8     23.30
   6363   69.12     550    566.3     23.45
   6364   69.13     560    581.5     23.66
   6365   69.14     586    597.5     24.21
   6366   69.15     598    613.3     24.45
   6367   69.16     616    627.4     24.82
   6368   69.17     639    638.2     25.28
   6369   69.18     643    647.1     25.36
   6370   69.19     654    647.9     25.57
   6371   69.20     628    644.1     25.06
   6372   69.21     622    638.9     24.94
   6373   69.22     610    631.3     24.70
   6374   69.23     589      624     24.27
   6375   69.24     574      618     23.96
   6376   69.25     576    613.8     24.00
   6377   69.26     584    611.5     24.17
   6378   69.27     586    611.2     24.21
   6379   69.28     582    612.9     24.12
   6380   69.29     588    616.4     24.25
   6381   69.30     590    621.5     24.29
   6382   69.31     614    626.7     24.78
   6383   69.32     631    632.8     25.12
   6384   69.33     647    637.4     25.44
   6385   69.34     647      636     25.44
   6386   69.35     641    632.9     25.32
   6387   69.36     626    624.8     25.02
   6388   69.37     604    611.4     24.58
   6389   69.38     580    596.9     24.08
   6390   69.39     574    581.5     23.96
   6391   69.40     549    566.4     23.43
   6392   69.41     546    553.6     23.37
   6393   69.42     521    540.7     22.83
   6394   69.43     515      529     22.69
   6395   69.44     496    518.5     22.27
   6396   69.45     497    509.1     22.29
   6397   69.46     492    500.6     22.18
   6398   69.47     481    493.1     21.93
   6399   69.48     469    486.3     21.66
   6400   69.49     466    480.3     21.59
   6401   69.50     458      475     21.40
   6402   69.51     452    470.2     21.26
   6403   69.52     440    466.1     20.98
   6404   69.53     457    462.4     21.38
   6405   69.54     442    459.2     21.02
   6406   69.55     444    456.5     21.07
   6407   69.56     454    452.6     21.31
   6408   69.57     446    450.7     21.12
   6409   69.58     440      449     20.98
   6410   69.59     443    447.6     21.05
   6411   69.60     432    446.4     20.78
   6412   69.61     434    445.4     20.83
   6413   69.62     431    444.5     20.76
   6414   69.63     430    443.7     20.74
   6415   69.64     414      443     20.35
   6416   69.65     427    442.5     20.66
   6417   69.66     427    441.9     20.66
   6418   69.67     422    441.5     20.54
   6419   69.68     418    441.1     20.45
   6420   69.69     416    440.7     20.40
   6421   69.70     418    440.4     20.45
   6422   69.71     428    440.1     20.69
   6423   69.72     426    439.8     20.64
   6424   69.73     426    439.5     20.64
   6425   69.74     429    439.3     20.71
   6426   69.75     422      439     20.54
   6427   69.76     424    437.9     20.59
   6428   69.77     428    437.7     20.69
   6429   69.78     422    437.6     20.54
   6430   69.79     435    437.4     20.86
   6431   69.80     430    437.3     20.74
   6432   69.81     418    438.2     20.45
   6433   69.82     433    438.1     20.81
   6434   69.83     427      438     20.66
   6435   69.84     423    437.9     20.57
   6436   69.85     419    439.4     20.47
   6437   69.86     420    439.4     20.49
   6438   69.87     417    439.4     20.42
   6439   69.88     428    439.5     20.69
   6440   69.89     430    439.5     20.74
   6441   69.90     425    439.5     20.62
   6442   69.91     422    439.5     20.54
   6443   69.92     417    438.5     20.42
   6444   69.93     425    437.5     20.62
   6445   69.94     421    437.5     20.52
   6446   69.95     425    437.4     20.62
   6447   69.96     420    437.4     20.49
   6448   69.97     433    437.3     20.81
   6449   69.98     423    437.2     20.57
   6450   69.99     438    435.8     20.93
   6451   70.00     426    435.8     20.64
   6452   70.01     423    435.9     20.57
   6453   70.02     426    437.9     20.64
   6454   70.03     423    439.4     20.57
   6455   70.04     415    439.7     20.37
   6456   70.05     419    440.1     20.47
   6457   70.06     432    440.5     20.78
   6458   70.07     428    440.9     20.69
   6459   70.08     431    441.3     20.76
   6460   70.09     427    443.3     20.66
   6461   70.10     447    443.9     21.14
   6462   70.11     432    444.5     20.78
   6463   70.12     438      445     20.93
   6464   70.13     435    446.6     20.86
   6465   70.14     428    447.2     20.69
   6466   70.15     432    447.8     20.78
   6467   70.16     433    448.3     20.81
   6468   70.17     440    448.8     20.98
   6469   70.18     440    449.3     20.98
   6470   70.19     451    449.7     21.24
   6471   70.20     456    450.2     21.35
   6472   70.21     457    450.8     21.38
   6473   70.22     456    449.9     21.35
   6474   70.23     453    450.8     21.28
   6475   70.24     445    454.5     21.10
   6476   70.25     460      456     21.45
   6477   70.26     460    457.7     21.45
   6478   70.27     469    459.7     21.66
   6479   70.28     476    462.1     21.82
   6480   70.29     470    464.9     21.68
   6481   70.30     468    469.4     21.63
   6482   70.31     467    473.4     21.61
   6483   70.32     479      477     21.89
   6484   70.33     489    482.7     22.11
   6485   70.34     497    489.2     22.29
   6486   70.35     500    496.8     22.36
   6487   70.36     501      504     22.38
   6488   70.37     513      514     22.65
   6489   70.38     534    525.2     23.11
   6490   70.39     548    537.9     23.41
   6491   70.40     546    552.2     23.37
   6492   70.41     566    568.1     23.79
   6493   70.42     577    585.7     24.02
   6494   70.43     586    605.4     24.21
   6495   70.44     608    627.2     24.66
   6496   70.45     620    651.3     24.90
   6497   70.46     663    677.5     25.75
   6498   70.47     680    705.5     26.08
   6499   70.48     722    734.4     26.87
   6500   70.49     772    762.2     27.78
   6501   70.50     801    786.2     28.30
   6502   70.51     840    803.1     28.98
   6503   70.52     855    812.2     29.24
   6504   70.53     834    808.8     28.88
   6505   70.54     813    796.3     28.51
   6506   70.55     789    779.7     28.09
   6507   70.56     747      759     27.33
   6508   70.57     730    738.3     27.02
   6509   70.58     696    719.3     26.38
   6510   70.59     660    702.8     25.69
   6511   70.60     648    689.1     25.46
   6512   70.61     647    678.4     25.44
   6513   70.62     642    670.4     25.34
   6514   70.63     643    665.1     25.36
   6515   70.64     649      662     25.48
   6516   70.65     651    658.8     25.51
   6517   70.66     662    657.8     25.73
   6518   70.67     672    655.8     25.92
   6519   70.68     656    651.3     25.61
   6520   70.69     652    644.8     25.53
   6521   70.70     653    633.2     25.55
   6522   70.71     640    618.8     25.30
   6523   70.72     610    602.9     24.70
   6524   70.73     585    586.8     24.19
   6525   70.74     558    571.4     23.62
   6526   70.75     537    557.1     23.17
   6527   70.76     536    545.6     23.15
   6528   70.77     534      534     23.11
   6529   70.78     530    523.6     23.02
   6530   70.79     514    514.4     22.67
   6531   70.80     512    504.6     22.63
   6532   70.81     498    496.4     22.32
   6533   70.82     502      490     22.41
   6534   70.83     490    484.3     22.14
   6535   70.84     486    479.4     22.05
   6536   70.85     482      475     21.95
   6537   70.86     479    471.1     21.89
   6538   70.87     470    466.3     21.68
   6539   70.88     472    463.6     21.73
   6540   70.89     468    461.2     21.63
   6541   70.90     469    459.2     21.66
   6542   70.91     476    457.5     21.82
   6543   70.92     471    456.2     21.70
   6544   70.93     460    455.1     21.45
   6545   70.94     467    456.7     21.61
   6546   70.95     468    456.4     21.63
   6547   70.96     477    456.2     21.84
   6548   70.97     469    456.3     21.66
   6549   70.98     476    456.5     21.82
   6550   70.99     469    458.3     21.66
   6551   71.00     475    458.8     21.79
   6552   71.01     481    459.6     21.93
   6553   71.02     459    458.4     21.42
   6554   71.03     473    459.4     21.75
   6555   71.04     473    460.5     21.75
   6556   71.05     470    461.7     21.68
   6557   71.06     491      463     22.16
   6558   71.07     468    464.5     21.63
   6559   71.08     478    465.1     21.86
   6560   71.09     474    467.1     21.77
   6561   71.10     485    469.4     22.02
   6562   71.11     496    470.7     22.27
   6563   71.12     477    473.9     21.84
   6564   71.13     494    477.8     22.23
   6565   71.14     498    482.4     22.32
   6566   71.15     515    487.9     22.69
   6567   71.16     521    494.3     22.83
   6568   71.17     515    504.9     22.69
   6569   71.18     533    513.7     23.09
   6570   71.19     531    523.8     23.04
   6571   71.20     534    535.4     23.11
   6572   71.21     550    548.5     23.45
   6573   71.22     570    562.4     23.87
   6574   71.23     570    578.4     23.87
   6575   71.24     599    597.3     24.47
   6576   71.25     622    617.4     24.94
   6577   71.26     646    640.7     25.42
   6578   71.27     658    666.3     25.65
   6579   71.28     697    694.5     26.40
   6580   71.29     726      725     26.94
   6581   71.30     766    757.5     27.68
   6582   71.31     805    790.8     28.37
   6583   71.32     857    822.7     29.27
   6584   71.33     906    849.9     30.10
   6585   71.34     921    867.2     30.35
   6586   71.35     926    873.8     30.43
   6587   71.36     935    866.9     30.58
   6588   71.37     901    849.1     30.02
   6589   71.38     857    821.8     29.27
   6590   71.39     820    790.1     28.64
   6591   71.40     768    757.2     27.71
   6592   71.41     706    725.1     26.57
   6593   71.42     683    695.2     26.13
   6594   71.43     650      669     25.50
   6595   71.44     622    644.1     24.94
   6596   71.45     625    621.7     25.00
   6597   71.46     596    601.5     24.41
   6598   71.47     588    583.4     24.25
   6599   71.48     568    567.2     23.83
   6600   71.49     562    552.9     23.71
   6601   71.50     560    540.3     23.66
   6602   71.51     542    529.3     23.28
   6603   71.52     537    519.8     23.17
   6604   71.53     529    511.7     23.00
   6605   71.54     537    504.9     23.17
   6606   71.55     519    498.1     22.78
   6607   71.56     506    493.9     22.49
   6608   71.57     518    490.9     22.76
   6609   71.58     520      489     22.80
   6610   71.59     515    488.1     22.69
   6611   71.60     519    488.4     22.78
   6612   71.61     529    489.7     23.00
   6613   71.62     530    492.1     23.02
   6614   71.63     522    495.6     22.85
   6615   71.64     527    500.4     22.96
   6616   71.65     525    506.4     22.91
   6617   71.66     542    513.8     23.28
   6618   71.67     547    522.7     23.39
   6619   71.68     556    533.1     23.58
   6620   71.69     554    545.2     23.54
   6621   71.70     561      559     23.69
   6622   71.71     573    574.8     23.94
   6623   71.72     603    592.5     24.56
   6624   71.73     605    612.5     24.60
   6625   71.74     620    634.7     24.90
   6626   71.75     656    659.5     25.61
   6627   71.76     683    686.9     26.13
   6628   71.77     705    717.1     26.55
   6629   71.78     741    750.3     27.22
   6630   71.79     777    786.2     27.87
   6631   71.80     824      824     28.71
   6632   71.81     888      862     29.80
   6633   71.82     931    897.3     30.51
   6634   71.83     973    925.8     31.19
   6635   71.84    1012    942.9     31.81
   6636   71.85    1005    945.2     31.70
   6637   71.86     991    932.2     31.48
   6638   71.87     962    906.4     31.02
   6639   71.88     887    873.6     29.78
   6640   71.89     842    835.6     29.02
   6641   71.90     782      797     27.96
   6642   71.91     721    759.9     26.85
   6643   71.92     680    725.3     26.08
   6644   71.93     657    693.5     25.63
   6645   71.94     644    664.6     25.38
   6646   71.95     610    638.4     24.70
   6647   71.96     603    614.7     24.56
   6648   71.97     575    593.3     23.98
   6649   71.98     551      574     23.47
   6650   71.99     557    556.8     23.60
   6651   72.00     550    541.4     23.45
   6652   72.01     534    526.6     23.11
   6653   72.02     528    514.7     22.98
   6654   72.03     516    504.2     22.72
   6655   72.04     498    495.1     22.32
   6656   72.05     496    487.2     22.27
   6657   72.06     488    480.4     22.09
   6658   72.07     482    474.5     21.95
   6659   72.08     476    469.5     21.82
   6660   72.09     482    465.3     21.95
   6661   72.10     464    464.1     21.54
   6662   72.11     471    461.2     21.70
   6663   72.12     460    458.7     21.45
   6664   72.13     458    456.6     21.40
   6665   72.14     461    454.7     21.47
   6666   72.15     452    453.1     21.26
   6667   72.16     451    451.7     21.24
   6668   72.17     460    450.4     21.45
   6669   72.18     452    449.2     21.26
   6670   72.19     443    446.2     21.05
   6671   72.20     435    445.2     20.86
   6672   72.21     443    444.3     21.05
   6673   72.22     444    443.5     21.07
   6674   72.23     445    440.3     21.10
   6675   72.24     435    439.7     20.86
   6676   72.25     438    439.2     20.93
   6677   72.26     447    438.7     21.14
   6678   72.27     435    438.2     20.86
   6679   72.28     438    437.8     20.93
   6680   72.29     438    437.4     20.93
   6681   72.30     444      437     21.07
   6682   72.31     433    436.7     20.81
   6683   72.32     439    436.3     20.95
   6684   72.33     424      435     20.59
   6685   72.34     425    434.8     20.62
   6686   72.35     433    434.5     20.81
   6687   72.36     439    434.3     20.95
   6688   72.37     433    434.1     20.81
   6689   72.38     439    433.9     20.95
   6690   72.39     431    433.7     20.76
   6691   72.40     429    436.1     20.71
   6692   72.41     433    436.2     20.81
   6693   72.42     431    436.4     20.76
   6694   72.43     425    436.6     20.62
   6695   72.44     431    436.8     20.76
   6696   72.45     424    437.3     20.59
   6697   72.46     425    437.7     20.62
   6698   72.47     447    438.1     21.14
   6699   72.48     437    438.5     20.90
   6700   72.49     441      439     21.00
   6701   72.50     446    439.5     21.12
   6702   72.51     439    442.1     20.95
   6703   72.52     420    443.9     20.49
   6704   72.53     438    444.6     20.93
   6705   72.54     437    442.6     20.90
   6706   72.55     444    443.6     21.07
   6707   72.56     441    444.6     21.00
   6708   72.57     439    445.7     20.95
   6709   72.58     431    446.9     20.76
   6710   72.59     439    448.2     20.95
   6711   72.60     438    449.6     20.93
   6712   72.61     439    451.1     20.95
   6713   72.62     444    452.7     21.07
   6714   72.63     458    454.4     21.40
   6715   72.64     457      456     21.38
   6716   72.65     455    456.2     21.33
   6717   72.66     461    456.1     21.47
   6718   72.67     465    456.7     21.56
   6719   72.68     449    456.5     21.19
   6720   72.69     457    455.7     21.38
   6721   72.70     448    454.3     21.17
   6722   72.71     444    452.7     21.07
   6723   72.72     436      451     20.88
   6724   72.73     443    449.3     21.05
   6725   72.74     444      449     21.07
   6726   72.75     438    447.7     20.93
   6727   72.76     441    446.7     21.00
   6728   72.77     447    445.8     21.14
   6729   72.78     450      445     21.21
   6730   72.79     439    444.4     20.95
   6731   72.80     443    443.9     21.05
   6732   72.81     425    444.6     20.62
   6733   72.82     432    444.4     20.78
   6734   72.83     440    444.3     20.98
   6735   72.84     440    444.3     20.98
   6736   72.85     447    444.4     21.14
   6737   72.86     451    444.7     21.24
   6738   72.87     448    445.1     21.17
   6739   72.88     443    445.7     21.05
   6740   72.89     460    446.5     21.45
   6741   72.90     453    447.5     21.28
   6742   72.91     458    448.8     21.40
   6743   72.92     465    450.4     21.56
   6744   72.93     464    452.3     21.54
   6745   72.94     463    454.7     21.52
   6746   72.95     467    456.3     21.61
   6747   72.96     462    461.8     21.49
   6748   72.97     475    465.9     21.79
   6749   72.98     480    469.5     21.91
   6750   72.99     483    475.2     21.98
   6751   73.00     485    481.6     22.02
   6752   73.01     491    488.9     22.16
   6753   73.02     498    497.1     22.32
   6754   73.03     496    506.3     22.27
   6755   73.04     520    516.5     22.80
   6756   73.05     539      528     23.22
   6757   73.06     528    540.8     22.98
   6758   73.07     563    554.9     23.73
   6759   73.08     565    570.6     23.77
   6760   73.09     578    587.8     24.04
   6761   73.10     593    606.7     24.35
   6762   73.11     624    627.2     24.98
   6763   73.12     651    648.7     25.51
   6764   73.13     673    670.3     25.94
   6765   73.14     698    690.5     26.42
   6766   73.15     742    707.2     27.24
   6767   73.16     756    718.3     27.50
   6768   73.17     741    722.4     27.22
   6769   73.18     740    719.6     27.20
   6770   73.19     720    712.3     26.83
   6771   73.20     695    700.8     26.36
   6772   73.21     667    689.2     25.83
   6773   73.22     652    677.1     25.53
   6774   73.23     638    666.6     25.26
   6775   73.24     616    658.1     24.82
   6776   73.25     632    651.9     25.14
   6777   73.26     621    648.1     24.92
   6778   73.27     628    646.4     25.06
   6779   73.28     624    646.5     24.98
   6780   73.29     627      648     25.04
   6781   73.30     641    649.9     25.32
   6782   73.31     649    650.9     25.48
   6783   73.32     664    649.5     25.77
   6784   73.33     647    644.5     25.44
   6785   73.34     649    634.5     25.48
   6786   73.35     621      622     24.92
   6787   73.36     605    607.1     24.60
   6788   73.37     588    591.1     24.25
   6789   73.38     561    575.3     23.69
   6790   73.39     550    560.2     23.45
   6791   73.40     546    547.2     23.37
   6792   73.41     522    534.6     22.85
   6793   73.42     522    523.2     22.85
   6794   73.43     509      513     22.56
   6795   73.44     496    505.8     22.27
   6796   73.45     505    497.6     22.47
   6797   73.46     486    490.3     22.05
   6798   73.47     487    483.8     22.07
   6799   73.48     474      478     21.77
   6800   73.49     477    472.9     21.84
   6801   73.50     471    468.3     21.70
   6802   73.51     458    464.3     21.40
   6803   73.52     453    460.9     21.28
   6804   73.53     466    457.9     21.59
   6805   73.54     458    455.3     21.40
   6806   73.55     461    452.1     21.47
   6807   73.56     453    450.3     21.28
   6808   73.57     454    448.8     21.31
   6809   73.58     445    447.5     21.10
   6810   73.59     456    446.5     21.35
   6811   73.60     454    445.8     21.31
   6812   73.61     455    445.2     21.33
   6813   73.62     454    446.2     21.31
   6814   73.63     446    446.1     21.12
   6815   73.64     455    446.2     21.33
   6816   73.65     454    446.4     21.31
   6817   73.66     451    446.8     21.24
   6818   73.67     452    447.4     21.26
   6819   73.68     437    448.1     20.90
   6820   73.69     460    449.2     21.45
   6821   73.70     467    448.4     21.61
   6822   73.71     456    449.9     21.35
   6823   73.72     463    451.6     21.52
   6824   73.73     464    453.7     21.54
   6825   73.74     467    456.2     21.61
   6826   73.75     481    459.1     21.93
   6827   73.76     480    462.5     21.91
   6828   73.77     489    466.4     22.11
   6829   73.78     477    471.1     21.84
   6830   73.79     478    476.5     21.86
   6831   73.80     489    482.7     22.11
   6832   73.81     489    489.8     22.11
   6833   73.82     500      498     22.36
   6834   73.83     508    505.2     22.54
   6835   73.84     518    514.3     22.76
   6836   73.85     535    527.1     23.13
   6837   73.86     543    539.3     23.30
   6838   73.87     560      554     23.66
   6839   73.88     562    570.2     23.71
   6840   73.89     583    588.1     24.15
   6841   73.90     597    607.7     24.43
   6842   73.91     635    629.2     25.20
   6843   73.92     642    652.6     25.34
   6844   73.93     681    677.4     26.10
   6845   73.94     710    703.2     26.65
   6846   73.95     758    728.4     27.53
   6847   73.96     792      751     28.14
   6848   73.97     819    768.2     28.62
   6849   73.98     841    777.1     29.00
   6850   73.99     824    776.2     28.71
   6851   74.00     800    765.4     28.28
   6852   74.01     758    745.9     27.53
   6853   74.02     722    722.5     26.87
   6854   74.03     696    698.9     26.38
   6855   74.04     648    673.1     25.46
   6856   74.05     627    648.4     25.04
   6857   74.06     609    626.3     24.68
   6858   74.07     584    605.2     24.17
   6859   74.08     562    585.9     23.71
   6860   74.09     555    568.5     23.56
   6861   74.10     543    552.7     23.30
   6862   74.11     539    538.4     23.22
   6863   74.12     520    525.6     22.80
   6864   74.13     511    514.1     22.61
   6865   74.14     518    503.9     22.76
   6866   74.15     504    494.8     22.45
   6867   74.16     490    486.8     22.14
   6868   74.17     474    479.8     21.77
   6869   74.18     470    473.8     21.68
   6870   74.19     463    468.6     21.52
   6871   74.20     473    465.2     21.75
   6872   74.21     465    461.7     21.56
   6873   74.22     465    458.8     21.56
   6874   74.23     462    455.9     21.49
   6875   74.24     465    454.4     21.56
   6876   74.25     475    453.4     21.79
   6877   74.26     466    452.9     21.59
   6878   74.27     465      453     21.56
   6879   74.28     464    454.5     21.54
   6880   74.29     462    455.5     21.49
   6881   74.30     467      457     21.61
   6882   74.31     466      459     21.59
   6883   74.32     455    461.4     21.33
   6884   74.33     466    464.4     21.59
   6885   74.34     459    467.8     21.42
   6886   74.35     471    471.7     21.70
   6887   74.36     474    476.2     21.77
   6888   74.37     483    480.6     21.98
   6889   74.38     482    486.4     21.95
   6890   74.39     495    492.8     22.25
   6891   74.40     493      500     22.20
   6892   74.41     508    507.9     22.54
   6893   74.42     518    516.5     22.76
   6894   74.43     530    525.3     23.02
   6895   74.44     535    534.1     23.13
   6896   74.45     549      542     23.43
   6897   74.46     559    548.3     23.64
   6898   74.47     566    551.9     23.79
   6899   74.48     567    552.4     23.81
   6900   74.49     569    549.8     23.85
   6901   74.50     547    545.6     23.39
   6902   74.51     534    539.1     23.11
   6903   74.52     511      532     22.61
   6904   74.53     514      525     22.67
   6905   74.54     501    516.5     22.38
   6906   74.55     493    510.8     22.20
   6907   74.56     491      506     22.16
   6908   74.57     496    501.9     22.27
   6909   74.58     487    498.6     22.07
   6910   74.59     492    495.9     22.18
   6911   74.60     484    493.6     22.00
   6912   74.61     497    491.7     22.29
   6913   74.62     480    489.6     21.91
   6914   74.63     486    487.9     22.05
   6915   74.64     491    484.9     22.16
   6916   74.65     483    481.3     21.98
   6917   74.66     484      477     22.00
   6918   74.67     468    472.4     21.63
   6919   74.68     456      467     21.35
   6920   74.69     465    462.6     21.56
   6921   74.70     450    458.5     21.21
   6922   74.71     448    455.4     21.17
   6923   74.72     454      452     21.31
   6924   74.73     447    448.9     21.14
   6925   74.74     440    446.2     20.98
   6926   74.75     443    443.5     21.05
   6927   74.76     436    443.3     20.88
   6928   74.77     441    440.4     21.00
   6929   74.78     435    438.6     20.86
   6930   74.79     434    437.1     20.83
   6931   74.80     434    435.7     20.83
   6932   74.81     431    434.4     20.76
   6933   74.82     433    432.6     20.81
   6934   74.83     427    431.7     20.66
   6935   74.84     437    430.9     20.90
   6936   74.85     429    430.2     20.71
   6937   74.86     429    429.5     20.71
   6938   74.87     434      429     20.83
   6939   74.88     437    428.5     20.90
   6940   74.89     419      428     20.47
   6941   74.90     425      427     20.62
   6942   74.91     424    426.9     20.59
   6943   74.92     430    427.5     20.74
   6944   74.93     428    425.6     20.69
   6945   74.94     421    425.7     20.52
   6946   74.95     429      426     20.71
   6947   74.96     436    426.2     20.88
   6948   74.97     430    426.6     20.74
   6949   74.98     438      427     20.93
   6950   74.99     440    427.5     20.98
   6951   75.00     427      427     20.66
   6952   75.01     435    427.8     20.86
   6953   75.02     422    428.6     20.54
   6954   75.03     432    429.6     20.78
   6955   75.04     428    430.7     20.69
   6956   75.05     431      432     20.76
   6957   75.06     442    433.5     21.02
   6958   75.07     436    436.9     20.88
   6959   75.08     443    439.1     21.05
   6960   75.09     440    441.6     20.98
   6961   75.10     445    444.5     21.10
   6962   75.11     452    447.7     21.26
   6963   75.12     452    450.8     21.26
   6964   75.13     457    455.7     21.38
   6965   75.14     454    460.4     21.31
   6966   75.15     469    465.7     21.66
   6967   75.16     461    473.5     21.47
   6968   75.17     470    479.9     21.68
   6969   75.18     472      487     21.73
   6970   75.19     488    494.7     22.09
   6971   75.20     490    503.2     22.14
   6972   75.21     501    512.5     22.38
   6973   75.22     523    522.6     22.87
   6974   75.23     523    533.4     22.87
   6975   75.24     545    544.7     23.35
   6976   75.25     553    554.6     23.52
   6977   75.26     577    565.2     24.02
   6978   75.27     584    573.8     24.17
   6979   75.28     606    579.3     24.62
   6980   75.29     614    580.7     24.78
   6981   75.30     590    577.8     24.29
   6982   75.31     587      571     24.23
   6983   75.32     577    561.5     24.02
   6984   75.33     560      550     23.66
   6985   75.34     531    539.6     23.04
   6986   75.35     524    528.6     22.89
   6987   75.36     524    518.9     22.89
   6988   75.37     506    509.3     22.49
   6989   75.38     491    500.6     22.16
   6990   75.39     487    494.2     22.07
   6991   75.40     474    487.2     21.77
   6992   75.41     487      481     22.07
   6993   75.42     475    475.4     21.79
   6994   75.43     464    470.5     21.54
   6995   75.44     466    468.1     21.59
   6996   75.45     460    464.4     21.45
   6997   75.46     461    461.3     21.47
   6998   75.47     457    458.7     21.38
   6999   75.48     455    456.6     21.33
   7000   75.49     464    455.1     21.54
   7001   75.50     464      454     21.54
   7002   75.51     473    453.5     21.75
   7003   75.52     457    453.5     21.38
   7004   75.53     458    454.1     21.40
   7005   75.54     449    455.2     21.19
   7006   75.55     452    456.9     21.26
   7007   75.56     471    459.3     21.70
   7008   75.57     468    460.5     21.63
   7009   75.58     472    464.4     21.73
   7010   75.59     478    469.1     21.86
   7011   75.60     476    474.6     21.82
   7012   75.61     481    480.9     21.93
   7013   75.62     499    488.2     22.34
   7014   75.63     508    496.4     22.54
   7015   75.64     510    505.6     22.58
   7016   75.65     514    515.9     22.67
   7017   75.66     528    527.5     22.98
   7018   75.67     542    540.2     23.28
   7019   75.68     551    554.4     23.47
   7020   75.69     562      570     23.71
   7021   75.70     586    587.2     24.21
   7022   75.71     602      606     24.54
   7023   75.72     611    626.1     24.72
   7024   75.73     632      647     25.14
   7025   75.74     673    667.8     25.94
   7026   75.75     692    687.1     26.31
   7027   75.76     724    702.9     26.91
   7028   75.77     746    713.2     27.31
   7029   75.78     750    716.8     27.39
   7030   75.79     735    713.7     27.11
   7031   75.80     718    705.2     26.80
   7032   75.81     687    693.4     26.21
   7033   75.82     659    678.2     25.67
   7034   75.83     655    665.1     25.59
   7035   75.84     632    653.3     25.14
   7036   75.85     622    643.3     24.94
   7037   75.86     619    635.2     24.88
   7038   75.87     606    629.2     24.62
   7039   75.88     605    625.1     24.60
   7040   75.89     603    622.5     24.56
   7041   75.90     614    621.1     24.78
   7042   75.91     607    619.8     24.64
   7043   75.92     605    617.8     24.60
   7044   75.93     623    613.9     24.96
   7045   75.94     598    607.4     24.45
   7046   75.95     596    597.9     24.41
   7047   75.96     588    586.1     24.25
   7048   75.97     561    572.7     23.69
   7049   75.98     551    558.7     23.47
   7050   75.99     538    545.6     23.19
   7051   76.00     513    532.6     22.65
   7052   76.01     512    520.6     22.63
   7053   76.02     501    509.7     22.38
   7054   76.03     494    499.9     22.23
   7055   76.04     481      491     21.93
   7056   76.05     480      483     21.91
   7057   76.06     467    475.8     21.61
   7058   76.07     473    469.3     21.75
   7059   76.08     458    463.5     21.40
   7060   76.09     456    458.4     21.35
   7061   76.10     450    453.8     21.21
   7062   76.11     435    449.7     20.86
   7063   76.12     439      446     20.95
   7064   76.13     436    442.8     20.88
   7065   76.14     447    439.9     21.14
   7066   76.15     448    437.4     21.17
   7067   76.16     442    435.2     21.02
   7068   76.17     433    433.2     20.81
   7069   76.18     441    431.5     21.00
   7070   76.19     436      430     20.88
   7071   76.20     426    428.7     20.64
   7072   76.21     426      427     20.64
   7073   76.22     423    425.1     20.57
   7074   76.23     417    424.3     20.42
   7075   76.24     417    423.6     20.42
   7076   76.25     427      423     20.66
   7077   76.26     429    422.4     20.71
   7078   76.27     429    421.9     20.71
   7079   76.28     428    421.5     20.69
   7080   76.29     416    421.1     20.40
   7081   76.30     426    420.8     20.64


# The following lines are used to test the character set of files sent by
# network email or other means. They are not part of the CIF data set.
# abcdefghijklmnopqrstuvwxyzABCDEFGHIJKLMNOPQRSTUVWXYZ0123456789
# !@#$%^&*()_+{}:"~<>?|\-=[];'`,./                 



data_Mg2Sn_100K_LT
_database_code_depnum_ccdc_archive 'CCDC 1577047'

loop_
  _audit_conform_dict_name
  _audit_conform_dict_version
  _audit_conform_dict_location
     cif_core.dic .  ftp://ftp.iucr.org/pub/cif_core.dic
     cif_pd.dic .  ftp://ftp.iucr.org/pub/cif_pd.dic
     
# 5. CHEMICAL DATA

_chemical_name_systematic                  
; 
magnesium silicide
;
_chemical_name_common          'magnesium stannide'
_chemical_formula_moiety          'Sn, 2(Mg)'    
_chemical_formula_structural      'Mg2 Sn'        
_chemical_formula_analytical      ?
_chemical_formula_sum             'Mg2 Sn'         
_chemical_formula_weight          167.32       
_chemical_melting_point           ?
_chemical_compound_source         ?       # for minerals and 
                                          # natural products

loop_                                      
     _atom_type_symbol                     
     _atom_type_scat_dispersion_real
     _atom_type_scat_dispersion_imag
     _atom_type_scat_source                
Mg    0.0158    0.0173    
'International Tables Vol C Tables 4.2.6.8 and 6.1.1.4'
Sn   -1.7640    0.7584    
'International Tables Vol C Tables 4.2.6.8 and 6.1.1.4'

#==============================================================================

# 6. POWDER SPECIMEN AND CRYSTAL DATA

_space_group_crystal_system            cubic       
_space_group_name_H-M_alt    'F m -3 m'        
_space_group_name_Hall         '-F 4 2 3'

loop_                                      
      _symmetry_equiv_pos_site_id          
      _symmetry_equiv_pos_as_xyz         
      1   x,y,z
      2   -x,-y,z
      3   -x,y,-z
      4   x,-y,-z
      5   z,x,y
      6   z,-x,-y
      7   -z,-x,y
      8   -z,x,-y
      9   y,z,x
      10  -y,z,-x
      11  y,-z,-x
      12  -y,-z,x
      13  y,x,-z
      14  -y,-x,-z
      15  y,-x,z
      16  -y,x,z
      17  x,z,-y
      18  -x,z,y
      19  -x,-z,-y
      20  x,-z,y
      21  z,y,-x
      22  z,-y,x
      23  -z,y,x
      24  -z,-y,-x
      25  -x,-y,-z
      26  x,y,-z
      27  x,-y,z
      28  -x,y,z
      29  -z,-x,-y
      30  -z,x,y
      31  z,x,-y
      32  z,-x,y
      33  -y,-z,-x
      34  y,-z,x
      35  -y,z,x
      36  y,z,-x
      37  -y,-x,z
      38  y,x,z
      39  -y,x,-z
      40  y,-x,-z
      41  -x,-z,y
      42  x,-z,-y
      43  x,z,y
      44  -x,z,-y
      45  -z,-y,x
      46  -z,y,-x
      47  z,-y,-x
      48  z,y,x
      49  x,y+1/2,z+1/2
      50  -x,-y+1/2,z+1/2
      51  -x,y+1/2,-z+1/2
      52  x,-y+1/2,-z+1/2
      53  z,x+1/2,y+1/2
      54  z,-x+1/2,-y+1/2
      55  -z,-x+1/2,y+1/2
      56  -z,x+1/2,-y+1/2
      57  y,z+1/2,x+1/2
      58  -y,z+1/2,-x+1/2
      59  y,-z+1/2,-x+1/2
      60  -y,-z+1/2,x+1/2
      61  y,x+1/2,-z+1/2
      62  -y,-x+1/2,-z+1/2
      63  y,-x+1/2,z+1/2
      64  -y,x+1/2,z+1/2
      65  x,z+1/2,-y+1/2
      66  -x,z+1/2,y+1/2
      67  -x,-z+1/2,-y+1/2
      68  x,-z+1/2,y+1/2
      69  z,y+1/2,-x+1/2
      70  z,-y+1/2,x+1/2
      71  -z,y+1/2,x+1/2
      72  -z,-y+1/2,-x+1/2
      73  -x,-y+1/2,-z+1/2
      74  x,y+1/2,-z+1/2
      75  x,-y+1/2,z+1/2
      76  -x,y+1/2,z+1/2
      77  -z,-x+1/2,-y+1/2
      78  -z,x+1/2,y+1/2
      79  z,x+1/2,-y+1/2
      80  z,-x+1/2,y+1/2
      81  -y,-z+1/2,-x+1/2
      82  y,-z+1/2,x+1/2
      83  -y,z+1/2,x+1/2
      84  y,z+1/2,-x+1/2
      85  -y,-x+1/2,z+1/2
      86  y,x+1/2,z+1/2
      87  -y,x+1/2,-z+1/2
      88  y,-x+1/2,-z+1/2
      89  -x,-z+1/2,y+1/2
      90  x,-z+1/2,-y+1/2
      91  x,z+1/2,y+1/2
      92  -x,z+1/2,-y+1/2
      93  -z,-y+1/2,x+1/2
      94  -z,y+1/2,-x+1/2
      95  z,-y+1/2,-x+1/2
      96  z,y+1/2,x+1/2
      97  x+1/2,y,z+1/2
      98  -x+1/2,-y,z+1/2
      99  -x+1/2,y,-z+1/2
      100 x+1/2,-y,-z+1/2
      101 z+1/2,x,y+1/2
      102 z+1/2,-x,-y+1/2
      103 -z+1/2,-x,y+1/2
      104 -z+1/2,x,-y+1/2
      105 y+1/2,z,x+1/2
      106 -y+1/2,z,-x+1/2
      107 y+1/2,-z,-x+1/2
      108 -y+1/2,-z,x+1/2
      109 y+1/2,x,-z+1/2
      110 -y+1/2,-x,-z+1/2
      111 y+1/2,-x,z+1/2
      112 -y+1/2,x,z+1/2
      113 x+1/2,z,-y+1/2
      114 -x+1/2,z,y+1/2
      115 -x+1/2,-z,-y+1/2
      116 x+1/2,-z,y+1/2
      117 z+1/2,y,-x+1/2
      118 z+1/2,-y,x+1/2
      119 -z+1/2,y,x+1/2
      120 -z+1/2,-y,-x+1/2
      121 -x+1/2,-y,-z+1/2
      122 x+1/2,y,-z+1/2
      123 x+1/2,-y,z+1/2
      124 -x+1/2,y,z+1/2
      125 -z+1/2,-x,-y+1/2
      126 -z+1/2,x,y+1/2
      127 z+1/2,x,-y+1/2
      128 z+1/2,-x,y+1/2
      129 -y+1/2,-z,-x+1/2
      130 y+1/2,-z,x+1/2
      131 -y+1/2,z,x+1/2
      132 y+1/2,z,-x+1/2
      133 -y+1/2,-x,z+1/2
      134 y+1/2,x,z+1/2
      135 -y+1/2,x,-z+1/2
      136 y+1/2,-x,-z+1/2
      137 -x+1/2,-z,y+1/2
      138 x+1/2,-z,-y+1/2
      139 x+1/2,z,y+1/2
      140 -x+1/2,z,-y+1/2
      141 -z+1/2,-y,x+1/2
      142 -z+1/2,y,-x+1/2
      143 z+1/2,-y,-x+1/2
      144 z+1/2,y,x+1/2
      145 x+1/2,y+1/2,z
      146 -x+1/2,-y+1/2,z
      147 -x+1/2,y+1/2,-z
      148 x+1/2,-y+1/2,-z
      149 z+1/2,x+1/2,y
      150 z+1/2,-x+1/2,-y
      151 -z+1/2,-x+1/2,y
      152 -z+1/2,x+1/2,-y
      153 y+1/2,z+1/2,x
      154 -y+1/2,z+1/2,-x
      155 y+1/2,-z+1/2,-x
      156 -y+1/2,-z+1/2,x
      157 y+1/2,x+1/2,-z
      158 -y+1/2,-x+1/2,-z
      159 y+1/2,-x+1/2,z
      160 -y+1/2,x+1/2,z
      161 x+1/2,z+1/2,-y
      162 -x+1/2,z+1/2,y
      163 -x+1/2,-z+1/2,-y
      164 x+1/2,-z+1/2,y
      165 z+1/2,y+1/2,-x
      166 z+1/2,-y+1/2,x
      167 -z+1/2,y+1/2,x
      168 -z+1/2,-y+1/2,-x
      169 -x+1/2,-y+1/2,-z
      170 x+1/2,y+1/2,-z
      171 x+1/2,-y+1/2,z
      172 -x+1/2,y+1/2,z
      173 -z+1/2,-x+1/2,-y
      174 -z+1/2,x+1/2,y
      175 z+1/2,x+1/2,-y
      176 z+1/2,-x+1/2,y
      177 -y+1/2,-z+1/2,-x
      178 y+1/2,-z+1/2,x
      179 -y+1/2,z+1/2,x
      180 y+1/2,z+1/2,-x
      181 -y+1/2,-x+1/2,z
      182 y+1/2,x+1/2,z
      183 -y+1/2,x+1/2,-z
      184 y+1/2,-x+1/2,-z
      185 -x+1/2,-z+1/2,y
      186 x+1/2,-z+1/2,-y
      187 x+1/2,z+1/2,y
      188 -x+1/2,z+1/2,-y
      189 -z+1/2,-y+1/2,x
      190 -z+1/2,y+1/2,-x
      191 z+1/2,-y+1/2,-x
      192 z+1/2,y+1/2,x


_cell_length_a                    6.741735(12)        
_cell_length_b                    6.741735(12)         
_cell_length_c                    6.741735(12)         
_cell_angle_alpha                 90.0        
_cell_angle_beta                  90.0       
_cell_angle_gamma                90.0        
_cell_volume                      306.4185(9)       
_cell_formula_units_Z             4        
_cell_measurement_temperature     100        

_cell_special_details
; ?
;

# The next three fields give the specimen dimensions in mm.  The equatorial 
# plane contains the incident and diffracted beam.

_pd_spec_size_axial               ?       # perpendicular to 
                                          # equatorial plane

_pd_spec_size_equat               ?       # parallel to 
                                          # scattering vector 
                                          # in transmission

_pd_spec_size_thick               ?       # parallel to 
                                          # scattering vector 
                                          # in reflection

# The next five fields are character fields that describe the specimen.

_pd_spec_mounting                         # This field should be
                                          # used to give details of the 
                                          # container.
; ?
;
_pd_spec_mount_mode               ?       # options are 'reflection' 
                                          # or 'transmission'
    
_pd_spec_shape                    ?       # options are 'cylinder' 
                                          # 'flat_sheet' or 'irregular'

_pd_char_particle_morphology      ?
_pd_char_colour                   Black


# The following three fields describe the preparation of the specimen.   
# The cooling rate is in K/min.  The pressure at which the sample was  
# prepared is in kPa.  The temperature of preparation is in K.
               
_pd_prep_cool_rate                ?        
_pd_prep_pressure                 ?        
_pd_prep_temperature              ?        

# The next four fields are normally only needed for transmission experiments.
_exptl_absorpt_coefficient_mu     ?
_exptl_absorpt_correction_type    ?       # include if applicable
_exptl_absorpt_process_details    ?       # include if applicable
_exptl_absorpt_correction_T_min   ?       # include if applicable
_exptl_absorpt_correction_T_max   ?       # include if applicable

#==============================================================================

# 7. EXPERIMENTAL DATA

_exptl_special_details
; ?
;

# The following item is used to identify the equipment used to record 
# the powder pattern when the diffractogram was measured at a laboratory 
# other than the authors' home institution, e.g. when neutron or synchrotron
# radiation is used.

_pd_instr_location
; ?
;
_pd_calibration_special_details           # description of the method used
                                          # to calibrate the instrument
; ?
;

_diffrn_ambient_temperature       100       
_diffrn_source                    synchrotron
_diffrn_source_target             ?
_diffrn_source_type               'SPring-8 BL44B2'
_diffrn_radiation_type            synchrotron      
_diffrn_measurement_device_type   'Large Debye-Scherrer camera'      
_diffrn_detector                  'Imaging Plate'       
_diffrn_detector_type             ?       # make or model of detector

_pd_meas_scan_method              ?       # options are 'step', 'cont',
                                          # 'tof', 'fixed' or
                                          # 'disp' (= dispersive)
_pd_meas_special_details
;  ?
;

# The following six items are used for angular dispersive measurements only.

_diffrn_radiation_wavelength      0.49935       
_diffrn_radiation_monochromator   Si(111)        

#  The following four items give details of the measured (not processed)
#  powder pattern.  Angles are in degrees.

_pd_meas_number_of_points         7815
_pd_meas_2theta_range_min         0.01        
_pd_meas_2theta_range_max         78.15        
_pd_meas_2theta_range_inc         0.01        

# The following three items are used for time-of-flight measurements only.

_pd_instr_dist_src/spec           ?        
_pd_instr_dist_spec/detc          ?        
_pd_meas_2theta_fixed             ?        


#==============================================================================

# 8. REFINEMENT DATA

# Use the next field to give any special details about the fitting of the
# powder pattern.

_pd_proc_ls_special_details
; ?
;

# The next three items are given as text.

_pd_proc_ls_profile_function      'Pseudo-Voigt'        
_pd_proc_ls_background_function   '12 degree polynominal'
_pd_proc_ls_pref_orient_corr        none       

_pd_proc_ls_prof_R_factor         0.0389        
_pd_proc_ls_prof_wR_factor        0.0504        
_pd_proc_ls_prof_wR_expected      ?        
_refine_ls_R_I_factor             0.0185
_refine_ls_R_Fsqd_factor          ?
_refine_ls_R_factor_all           ?

_refine_special_details
; ?
;

_refine_ls_matrix_type            ?        
_refine_ls_weighting_scheme   ?  # options are 'sigma' (based on measured su's)
                                 # or 'calc' (calculated weights)
_refine_ls_weighting_details      ?
_refine_ls_hydrogen_treatment     ?        
_refine_ls_extinction_method      ?        
_refine_ls_extinction_coef        ?         
_refine_ls_number_parameters      30        
_refine_ls_number_restraints      0        
_refine_ls_number_constraints     ?        

# The following item is the same as CHI, the square root of 'CHI squared'
_refine_ls_goodness_of_fit_all    1.91       
      
_refine_ls_restrained_S_all       ?        
_refine_ls_shift/su_max           0.05        
_refine_ls_shift/su_mean          ?

# The following four items apply to angular dispersive measurements.
# 2theta minimum, maximum and increment (in degrees) are for the 
# intensities used in the refinement.

_pd_proc_2theta_range_min         5.50        
_pd_proc_2theta_range_max         76.3        
_pd_proc_2theta_range_inc         0.01        
_pd_proc_wavelength               ?        

# Each refinement must be accompanied by a listing of the powder data
# in CIF format. Each listing should be sent as a separate file consisting 
# of one data block containing a single powder profile. The value of 
# _pd_block_diffractogram_id is used to associate each refinement with 
# its corresponding powder profile, since it must match the value
# of _pd_block_id in the file containing the powder data. A template 
# for supplying powder data in CIF format is available by ftp at
# ftp://ftp.iucr.org/pub/rietdataform.cif and an example is given 
# at ftp://ftp.iucr.org/pub/rietdataxmpl.cif.

_pd_block_diffractogram_id        Mg2Sn_100K_LT 


# Give appropriate details in the next two text fields.

_pd_proc_info_excluded_regions    ?        
_pd_proc_info_data_reduction      ?

# The following items are used to identify the programs used.

_computing_data_collection        ?        
_computing_cell_refinement        ?
_computing_data_reduction         ?                   
_computing_structure_solution     ?        
_computing_structure_refinement   ?       
_computing_molecular_graphics     ?
_computing_publication_material   ?


#==============================================================================


# 9. ATOMIC COORDINATES AND DISPLACEMENT PARAMETERS

loop_
       _atom_site_label 
       _atom_site_type_symbol                   
       _atom_site_fract_x                  
       _atom_site_fract_y                  
       _atom_site_fract_z                  
       _atom_site_U_iso_or_equiv      
       _atom_site_adp_type
       _atom_site_occupancy                     
    Mg1 Mg  0.25  0.25   0.25  0.00671(11) Uiso 1
    Sn1 Sn   0      0       0     0.00389(3) Uiso 1

# Note: if the displacement parameters were refined anisotropically 
# the U matrices should be given as for single-crystal studies.


#==============================================================================


# 10. MOLECULAR GEOMETRY

_geom_special_details             ?

loop_
       _geom_bond_atom_site_label_1
       _geom_bond_atom_site_label_2
       _geom_bond_distance
       Mg1 Sn1 2.919257(5)

      loop_
      _geom_angle_atom_site_label_1
      _geom_angle_atom_site_label_2
      _geom_angle_atom_site_label_3
      _geom_angle
      Mg1 Sn1 Mg1 70.529

#==============================================================================
# Additional structures (sections 5-10 and associated data_? identifiers)
# may be added at this point.
#==============================================================================

# The following lines are used to test the character set of files sent by
# network email or other means. They are not part of the CIF data set.
# abcdefghijklmnopqrstuvwxyzABCDEFGHIJKLMNOPQRSTUVWXYZ0123456789
# !@#$%^&*()_+{}:"~<>?|\-=[];'`,./             

#==============================================================================




# powder data simulated using PLATON:

data_Mg2Sn_100K_LT_simulated_0.49935

_publcif_pd_cifplot 'simulated 2021-03-25'

