data_I

_pd_block_id      iz1026profile
_pd_block_diffractogram_id      LiNa2AlF6

loop_
      _pd_proc_point_id                           
      _pd_proc_2theta_corrected            
      _pd_proc_energy_incident            
      _pd_proc_d_spacing                  
      _pd_proc_intensity_net                     
      _pd_calc_intensity_net                     
      _pd_proc_ls_weight                        
1       15.00   .       .       137     119     10.91
2       15.02   .       .       154     119     10.91
3       15.04   .       .       154     119     10.91
4       15.06   .       .       142     119     10.91
5       15.08   .       .       130     118     10.86
6       15.10   .       .       131     118     10.86
7       15.12   .       .       157     118     10.86
8       15.14   .       .       117     118     10.86
9       15.16   .       .       133     118     10.86
10      15.18   .       .       122     118     10.86
11      15.20   .       .       129     118     10.86
12      15.22   .       .       128     118     10.86
13      15.24   .       .       139     118     10.86
14      15.26   .       .       130     118     10.86
15      15.28   .       .       127     118     10.86
16      15.30   .       .       138     117     10.82
17      15.32   .       .       143     117     10.82
18      15.34   .       .       140     117     10.82
19      15.36   .       .       130     117     10.82
20      15.38   .       .       121     117     10.82
21      15.40   .       .       121     117     10.82
22      15.42   .       .       126     117     10.82
23      15.44   .       .       120     117     10.82
24      15.46   .       .       136     117     10.82
25      15.48   .       .       144     117     10.82
26      15.50   .       .       141     117     10.82
27      15.52   .       .       138     117     10.82
28      15.54   .       .       128     116     10.77
29      15.56   .       .       135     116     10.77
30      15.58   .       .       141     116     10.77
31      15.60   .       .       146     116     10.77
32      15.62   .       .       144     116     10.77
33      15.64   .       .       126     116     10.77
34      15.66   .       .       130     116     10.77
35      15.68   .       .       136     116     10.77
36      15.70   .       .       139     116     10.77
37      15.72   .       .       147     116     10.77
38      15.74   .       .       131     116     10.77
39      15.76   .       .       126     116     10.77
40      15.78   .       .       151     115     10.72
41      15.80   .       .       135     115     10.72
42      15.82   .       .       144     115     10.72
43      15.84   .       .       142     115     10.72
44      15.86   .       .       160     115     10.72
45      15.88   .       .       104     115     10.72
46      15.90   .       .       129     115     10.72
47      15.92   .       .       123     115     10.72
48      15.94   .       .       134     115     10.72
49      15.96   .       .       128     115     10.72
50      15.98   .       .       129     115     10.72
51      16.00   .       .       119     115     10.72
52      16.02   .       .       146     114     10.68
53      16.04   .       .       123     114     10.68
54      16.06   .       .       125     114     10.68
55      16.08   .       .       136     114     10.68
56      16.10   .       .       113     114     10.68
57      16.12   .       .       147     114     10.68
58      16.14   .       .       128     114     10.68
59      16.16   .       .       99      114     10.68
60      16.18   .       .       103     114     10.68
61      16.20   .       .       148     114     10.68
62      16.22   .       .       115     114     10.68
63      16.24   .       .       125     114     10.68
64      16.26   .       .       149     114     10.68
65      16.28   .       .       126     113     10.63
66      16.30   .       .       111     113     10.63
67      16.32   .       .       119     113     10.63
68      16.34   .       .       136     113     10.63
69      16.36   .       .       118     113     10.63
70      16.38   .       .       128     113     10.63
71      16.40   .       .       116     113     10.63
72      16.42   .       .       118     113     10.63
73      16.44   .       .       122     113     10.63
74      16.46   .       .       132     113     10.63
75      16.48   .       .       114     113     10.63
76      16.50   .       .       124     113     10.63
77      16.52   .       .       127     113     10.63
78      16.54   .       .       124     112     10.58
79      16.56   .       .       138     112     10.58
80      16.58   .       .       110     112     10.58
81      16.60   .       .       135     112     10.58
82      16.62   .       .       101     112     10.58
83      16.64   .       .       114     112     10.58
84      16.66   .       .       121     112     10.58
85      16.68   .       .       104     112     10.58
86      16.70   .       .       134     112     10.58
87      16.72   .       .       131     112     10.58
88      16.74   .       .       120     112     10.58
89      16.76   .       .       108     112     10.58
90      16.78   .       .       116     112     10.58
91      16.80   .       .       114     112     10.58
92      16.82   .       .       116     111     10.54
93      16.84   .       .       108     111     10.54
94      16.86   .       .       108     111     10.54
95      16.88   .       .       114     111     10.54
96      16.90   .       .       113     111     10.54
97      16.92   .       .       121     111     10.54
98      16.94   .       .       118     111     10.54
99      16.96   .       .       105     111     10.54
100     16.98   .       .       97      111     10.54
101     17.00   .       .       114     111     10.54
102     17.02   .       .       116     111     10.54
103     17.04   .       .       112     111     10.54
104     17.06   .       .       126     111     10.54
105     17.08   .       .       104     111     10.54
106     17.10   .       .       92      111     10.54
107     17.12   .       .       93      110     10.49
108     17.14   .       .       109     110     10.49
109     17.16   .       .       126     110     10.49
110     17.18   .       .       107     110     10.49
111     17.20   .       .       113     110     10.49
112     17.22   .       .       106     110     10.49
113     17.24   .       .       129     110     10.49
114     17.26   .       .       127     110     10.49
115     17.28   .       .       115     110     10.49
116     17.30   .       .       112     110     10.49
117     17.32   .       .       126     110     10.49
118     17.34   .       .       117     110     10.49
119     17.36   .       .       87      110     10.49
120     17.38   .       .       101     110     10.49
121     17.40   .       .       124     110     10.49
122     17.42   .       .       139     109     10.44
123     17.44   .       .       118     109     10.44
124     17.46   .       .       81      109     10.44
125     17.48   .       .       126     109     10.44
126     17.50   .       .       120     109     10.44
127     17.52   .       .       101     109     10.44
128     17.54   .       .       114     109     10.44
129     17.56   .       .       99      109     10.44
130     17.58   .       .       129     109     10.44
131     17.60   .       .       113     109     10.44
132     17.62   .       .       123     109     10.44
133     17.64   .       .       133     109     10.44
134     17.66   .       .       97      109     10.44
135     17.68   .       .       111     109     10.44
136     17.70   .       .       111     109     10.44
137     17.72   .       .       129     109     10.44
138     17.74   .       .       103     109     10.44
139     17.76   .       .       125     108     10.39
140     17.78   .       .       104     108     10.39
141     17.80   .       .       136     108     10.39
142     17.82   .       .       122     108     10.39
143     17.84   .       .       108     108     10.39
144     17.86   .       .       118     108     10.39
145     17.88   .       .       118     108     10.39
146     17.90   .       .       138     108     10.39
147     17.92   .       .       161     108     10.39
148     17.94   .       .       137     108     10.39
149     17.96   .       .       129     108     10.39
150     17.98   .       .       118     108     10.39
151     18.00   .       .       123     108     10.39
152     18.02   .       .       121     108     10.39
153     18.04   .       .       106     108     10.39
154     18.06   .       .       112     108     10.39
155     18.08   .       .       93      108     10.39
156     18.10   .       .       97      107     10.34
157     18.12   .       .       90      107     10.34
158     18.14   .       .       96      107     10.34
159     18.16   .       .       97      107     10.34
160     18.18   .       .       101     107     10.34
161     18.20   .       .       110     107     10.34
162     18.22   .       .       109     107     10.34
163     18.24   .       .       110     107     10.34
164     18.26   .       .       84      107     10.34
165     18.28   .       .       106     107     10.34
166     18.30   .       .       86      107     10.34
167     18.32   .       .       79      107     10.34
168     18.34   .       .       93      107     10.34
169     18.36   .       .       113     107     10.34
170     18.38   .       .       113     107     10.34
171     18.40   .       .       107     107     10.34
172     18.42   .       .       80      107     10.34
173     18.44   .       .       106     107     10.34
174     18.46   .       .       114     107     10.34
175     18.48   .       .       108     106     10.30
176     18.50   .       .       103     106     10.30
177     18.52   .       .       95      106     10.30
178     18.54   .       .       97      106     10.30
179     18.56   .       .       91      106     10.30
180     18.58   .       .       99      106     10.30
181     18.60   .       .       112     106     10.30
182     18.62   .       .       83      106     10.30
183     18.64   .       .       113     106     10.30
184     18.66   .       .       96      106     10.30
185     18.68   .       .       105     106     10.30
186     18.70   .       .       121     106     10.30
187     18.72   .       .       119     106     10.30
188     18.74   .       .       90      106     10.30
189     18.76   .       .       84      106     10.30
190     18.78   .       .       99      106     10.30
191     18.80   .       .       116     106     10.30
192     18.82   .       .       86      106     10.30
193     18.84   .       .       125     106     10.30
194     18.86   .       .       96      106     10.30
195     18.88   .       .       116     105     10.25
196     18.90   .       .       106     105     10.25
197     18.92   .       .       113     105     10.25
198     18.94   .       .       107     105     10.25
199     18.96   .       .       104     105     10.25
200     18.98   .       .       93      105     10.25
201     19.00   .       .       103     105     10.25
202     19.02   .       .       108     105     10.25
203     19.04   .       .       97      105     10.25
204     19.06   .       .       110     105     10.25
205     19.08   .       .       107     105     10.25
206     19.10   .       .       96      105     10.25
207     19.12   .       .       106     105     10.25
208     19.14   .       .       91      105     10.25
209     19.16   .       .       108     105     10.25
210     19.18   .       .       106     105     10.25
211     19.20   .       .       115     105     10.25
212     19.22   .       .       97      105     10.25
213     19.24   .       .       117     105     10.25
214     19.26   .       .       101     105     10.25
215     19.28   .       .       117     105     10.25
216     19.30   .       .       107     105     10.25
217     19.32   .       .       142     104     10.20
218     19.34   .       .       148     104     10.20
219     19.36   .       .       113     104     10.20
220     19.38   .       .       120     104     10.20
221     19.40   .       .       128     104     10.20
222     19.42   .       .       101     104     10.20
223     19.44   .       .       128     104     10.20
224     19.46   .       .       110     113     10.63
225     19.48   .       .       120     113     10.63
226     19.50   .       .       105     114     10.68
227     19.52   .       .       124     119     10.91
228     19.54   .       .       122     120     10.95
229     19.56   .       .       140     121     11.00
230     19.58   .       .       124     123     11.09
231     19.60   .       .       116     124     11.14
232     19.62   .       .       109     126     11.22
233     19.64   .       .       110     127     11.27
234     19.66   .       .       126     129     11.36
235     19.68   .       .       153     131     11.45
236     19.70   .       .       125     134     11.58
237     19.72   .       .       144     137     11.70
238     19.74   .       .       139     144     12.00
239     19.76   .       .       140     152     12.33
240     19.78   .       .       146     157     12.53
241     19.80   .       .       168     164     12.81
242     19.82   .       .       157     173     13.15
243     19.84   .       .       166     180     13.42
244     19.86   .       .       176     189     13.75
245     19.88   .       .       186     198     14.07
246     19.90   .       .       180     210     14.49
247     19.92   .       .       213     223     14.93
248     19.94   .       .       214     239     15.46
249     19.96   .       .       247     257     16.03
250     19.98   .       .       288     280     16.73
251     20.00   .       .       297     307     17.52
252     20.02   .       .       297     339     18.41
253     20.04   .       .       340     380     19.49
254     20.06   .       .       415     430     20.74
255     20.08   .       .       499     493     22.20
256     20.10   .       .       538     573     23.94
257     20.12   .       .       674     677     26.02
258     20.14   .       .       795     813     28.51
259     20.16   .       .       1034    994     31.53
260     20.18   .       .       1225    1238    35.19
261     20.20   .       .       1608    1570    39.62
262     20.22   .       .       2057    2025    45.00
263     20.24   .       .       2727    2642    51.40
264     20.26   .       .       3533    3452    58.75
265     20.28   .       .       4509    4441    66.64
266     20.30   .       .       5468    5489    74.09
267     20.32   .       .       6453    6356    79.72
268     20.34   .       .       6937    6778    82.33
269     20.36   .       .       6855    6636    81.46
270     20.38   .       .       6342    6134    78.32
271     20.40   .       .       5699    5500    74.16
272     20.42   .       .       4872    4956    70.40
273     20.44   .       .       4815    4716    68.67
274     20.46   .       .       4804    4876    69.83
275     20.48   .       .       5287    5379    73.34
276     20.50   .       .       5973    5999    77.45
277     20.52   .       .       6254    6391    79.94
278     20.54   .       .       6333    6271    79.19
279     20.56   .       .       5737    5642    75.11
280     20.58   .       .       4802    4723    68.72
281     20.60   .       .       3705    3705    60.87
282     20.62   .       .       2685    2763    52.56
283     20.64   .       .       1915    2018    44.92
284     20.66   .       .       1487    1485    38.54
285     20.68   .       .       1144    1117    33.42
286     20.70   .       .       1000    864     29.39
287     20.72   .       .       859     687     26.21
288     20.74   .       .       762     561     23.69
289     20.76   .       .       609     469     21.66
290     20.78   .       .       471     401     20.02
291     20.80   .       .       391     349     18.68
292     20.82   .       .       333     308     17.55
293     20.84   .       .       265     276     16.61
294     20.86   .       .       196     251     15.84
295     20.88   .       .       234     230     15.17
296     20.90   .       .       198     214     14.63
297     20.92   .       .       171     200     14.14
298     20.94   .       .       176     188     13.71
299     20.96   .       .       159     178     13.34
300     20.98   .       .       158     170     13.04
301     21.00   .       .       133     163     12.77
302     21.02   .       .       131     156     12.49
303     21.04   .       .       121     151     12.29
304     21.06   .       .       130     146     12.08
305     21.08   .       .       128     142     11.92
306     21.10   .       .       164     139     11.79
307     21.12   .       .       142     135     11.62
308     21.14   .       .       127     133     11.53
309     21.16   .       .       119     130     11.40
310     21.18   .       .       138     128     11.31
311     21.20   .       .       132     126     11.22
312     21.22   .       .       128     124     11.14
313     21.24   .       .       116     117     10.82
314     21.26   .       .       105     116     10.77
315     21.28   .       .       119     114     10.68
316     21.30   .       .       115     111     10.54
317     21.32   .       .       118     108     10.39
318     21.34   .       .       105     104     10.20
319     21.36   .       .       94      104     10.20
320     21.38   .       .       111     103     10.15
321     21.40   .       .       107     101     10.05
322     21.42   .       .       89      101     10.05
323     21.44   .       .       104     101     10.05
324     21.46   .       .       127     101     10.05
325     21.48   .       .       115     101     10.05
326     21.50   .       .       117     101     10.05
327     21.52   .       .       100     101     10.05
328     21.54   .       .       95      101     10.05
329     21.56   .       .       112     101     10.05
330     21.58   .       .       113     101     10.05
331     21.60   .       .       86      101     10.05
332     21.62   .       .       116     101     10.05
333     21.64   .       .       97      101     10.05
334     21.66   .       .       98      101     10.05
335     21.68   .       .       99      101     10.05
336     21.70   .       .       81      101     10.05
337     21.72   .       .       94      101     10.05
338     21.74   .       .       91      101     10.05
339     21.76   .       .       97      100     10.00
340     21.78   .       .       101     100     10.00
341     21.80   .       .       93      100     10.00
342     21.82   .       .       100     100     10.00
343     21.84   .       .       116     100     10.00
344     21.86   .       .       87      100     10.00
345     21.88   .       .       83      100     10.00
346     21.90   .       .       100     100     10.00
347     21.92   .       .       93      100     10.00
348     21.94   .       .       106     100     10.00
349     21.96   .       .       90      100     10.00
350     21.98   .       .       101     100     10.00
351     22.00   .       .       93      100     10.00
352     22.02   .       .       110     100     10.00
353     22.04   .       .       108     100     10.00
354     22.06   .       .       88      100     10.00
355     22.08   .       .       76      100     10.00
356     22.10   .       .       94      100     10.00
357     22.12   .       .       104     100     10.00
358     22.14   .       .       113     100     10.00
359     22.16   .       .       97      100     10.00
360     22.18   .       .       98      100     10.00
361     22.20   .       .       95      100     10.00
362     22.22   .       .       106     100     10.00
363     22.24   .       .       97      100     10.00
364     22.26   .       .       117     100     10.00
365     22.28   .       .       113     100     10.00
366     22.30   .       .       96      100     10.00
367     22.32   .       .       87      100     10.00
368     22.34   .       .       95      100     10.00
369     22.36   .       .       109     100     10.00
370     22.38   .       .       92      100     10.00
371     22.40   .       .       119     100     10.00
372     22.42   .       .       100     100     10.00
373     22.44   .       .       103     100     10.00
374     22.46   .       .       104     100     10.00
375     22.48   .       .       101     100     10.00
376     22.50   .       .       95      100     10.00
377     22.52   .       .       110     100     10.00
378     22.54   .       .       97      100     10.00
379     22.56   .       .       94      100     10.00
380     22.58   .       .       103     100     10.00
381     22.60   .       .       91      100     10.00
382     22.62   .       .       87      100     10.00
383     22.64   .       .       112     100     10.00
384     22.66   .       .       86      101     10.05
385     22.68   .       .       86      101     10.05
386     22.70   .       .       82      102     10.10
387     22.72   .       .       90      102     10.10
388     22.74   .       .       93      103     10.15
389     22.76   .       .       90      103     10.15
390     22.78   .       .       108     103     10.15
391     22.80   .       .       117     103     10.15
392     22.82   .       .       99      103     10.15
393     22.84   .       .       97      104     10.20
394     22.86   .       .       91      104     10.20
395     22.88   .       .       106     104     10.20
396     22.90   .       .       100     105     10.25
397     22.92   .       .       104     105     10.25
398     22.94   .       .       106     106     10.30
399     22.96   .       .       111     106     10.30
400     22.98   .       .       118     107     10.34
401     23.00   .       .       108     109     10.44
402     23.02   .       .       130     109     10.44
403     23.04   .       .       111     110     10.49
404     23.06   .       .       141     112     10.58
405     23.08   .       .       137     113     10.63
406     23.10   .       .       143     115     10.72
407     23.12   .       .       135     116     10.77
408     23.14   .       .       138     118     10.86
409     23.16   .       .       119     120     10.95
410     23.18   .       .       146     123     11.09
411     23.20   .       .       113     126     11.22
412     23.22   .       .       122     129     11.36
413     23.24   .       .       134     133     11.53
414     23.26   .       .       144     138     11.75
415     23.28   .       .       135     144     12.00
416     23.30   .       .       142     151     12.29
417     23.32   .       .       162     160     12.65
418     23.34   .       .       182     171     13.08
419     23.36   .       .       185     185     13.60
420     23.38   .       .       223     202     14.21
421     23.40   .       .       220     224     14.97
422     23.42   .       .       248     253     15.91
423     23.44   .       .       287     291     17.06
424     23.46   .       .       339     341     18.47
425     23.48   .       .       445     408     20.20
426     23.50   .       .       535     498     22.32
427     23.52   .       .       655     616     24.82
428     23.54   .       .       816     765     27.66
429     23.56   .       .       1059    939     30.64
430     23.58   .       .       1248    1119    33.45
431     23.60   .       .       1453    1277    35.74
432     23.62   .       .       1588    1392    37.31
433     23.64   .       .       1577    1467    38.30
434     23.66   .       .       1578    1508    38.83
435     23.68   .       .       1516    1481    38.48
436     23.70   .       .       1334    1353    36.78
437     23.72   .       .       1212    1163    34.10
438     23.74   .       .       905     970     31.14
439     23.76   .       .       748     780     27.93
440     23.78   .       .       571     604     24.58
441     23.80   .       .       422     466     21.59
442     23.82   .       .       355     367     19.16
443     23.84   .       .       311     299     17.29
444     23.86   .       .       233     252     15.87
445     23.88   .       .       159     219     14.80
446     23.90   .       .       167     195     13.96
447     23.92   .       .       173     177     13.30
448     23.94   .       .       137     163     12.77
449     23.96   .       .       140     153     12.37
450     23.98   .       .       116     145     12.04
451     24.00   .       .       116     138     11.75
452     24.02   .       .       136     132     11.49
453     24.04   .       .       100     128     11.31
454     24.06   .       .       108     124     11.14
455     24.08   .       .       117     121     11.00
456     24.10   .       .       105     119     10.91
457     24.12   .       .       102     117     10.82
458     24.14   .       .       87      115     10.72
459     24.16   .       .       111     113     10.63
460     24.18   .       .       97      112     10.58
461     24.20   .       .       108     110     10.49
462     24.22   .       .       79      109     10.44
463     24.24   .       .       104     108     10.39
464     24.26   .       .       108     108     10.39
465     24.28   .       .       97      107     10.34
466     24.30   .       .       79      106     10.30
467     24.32   .       .       79      106     10.30
468     24.34   .       .       97      105     10.25
469     24.36   .       .       96      105     10.25
470     24.38   .       .       88      104     10.20
471     24.40   .       .       88      104     10.20
472     24.42   .       .       98      103     10.15
473     24.44   .       .       89      103     10.15
474     24.46   .       .       86      103     10.15
475     24.48   .       .       84      101     10.05
476     24.50   .       .       97      101     10.05
477     24.52   .       .       94      101     10.05
478     24.54   .       .       90      101     10.05
479     24.56   .       .       96      101     10.05
480     24.58   .       .       85      101     10.05
481     24.60   .       .       83      99      9.95
482     24.62   .       .       88      99      9.95
483     24.64   .       .       89      99      9.95
484     24.66   .       .       100     99      9.95
485     24.68   .       .       95      99      9.95
486     24.70   .       .       96      99      9.95
487     24.72   .       .       87      99      9.95
488     24.74   .       .       97      99      9.95
489     24.76   .       .       85      99      9.95
490     24.78   .       .       103     99      9.95
491     24.80   .       .       81      98      9.90
492     24.82   .       .       98      98      9.90
493     24.84   .       .       67      98      9.90
494     24.86   .       .       112     98      9.90
495     24.88   .       .       85      98      9.90
496     24.90   .       .       84      98      9.90
497     24.92   .       .       78      98      9.90
498     24.94   .       .       87      98      9.90
499     24.96   .       .       94      98      9.90
500     24.98   .       .       75      98      9.90
501     25.00   .       .       84      98      9.90
502     25.02   .       .       82      98      9.90
503     25.04   .       .       83      98      9.90
504     25.06   .       .       93      98      9.90
505     25.08   .       .       94      98      9.90
506     25.10   .       .       84      98      9.90
507     25.12   .       .       105     98      9.90
508     25.14   .       .       86      98      9.90
509     25.16   .       .       82      98      9.90
510     25.18   .       .       79      98      9.90
511     25.20   .       .       87      98      9.90
512     25.22   .       .       92      98      9.90
513     25.24   .       .       86      98      9.90
514     25.26   .       .       85      98      9.90
515     25.28   .       .       91      98      9.90
516     25.30   .       .       83      98      9.90
517     25.32   .       .       85      98      9.90
518     25.34   .       .       81      98      9.90
519     25.36   .       .       76      98      9.90
520     25.38   .       .       82      98      9.90
521     25.40   .       .       79      98      9.90
522     25.42   .       .       84      98      9.90
523     25.44   .       .       94      98      9.90
524     25.46   .       .       102     98      9.90
525     25.48   .       .       84      98      9.90
526     25.50   .       .       96      98      9.90
527     25.52   .       .       91      98      9.90
528     25.54   .       .       109     99      9.95
529     25.56   .       .       80      99      9.95
530     25.58   .       .       81      100     10.00
531     25.60   .       .       90      100     10.00
532     25.62   .       .       67      100     10.00
533     25.64   .       .       69      100     10.00
534     25.66   .       .       93      100     10.00
535     25.68   .       .       97      101     10.05
536     25.70   .       .       105     101     10.05
537     25.72   .       .       88      101     10.05
538     25.74   .       .       81      101     10.05
539     25.76   .       .       90      101     10.05
540     25.78   .       .       86      101     10.05
541     25.80   .       .       88      102     10.10
542     25.82   .       .       82      102     10.10
543     25.84   .       .       81      102     10.10
544     25.86   .       .       84      102     10.10
545     25.88   .       .       97      103     10.15
546     25.90   .       .       117     103     10.15
547     25.92   .       .       96      104     10.20
548     25.94   .       .       98      104     10.20
549     25.96   .       .       107     105     10.25
550     25.98   .       .       94      105     10.25
551     26.00   .       .       95      106     10.30
552     26.02   .       .       89      107     10.34
553     26.04   .       .       93      108     10.39
554     26.06   .       .       117     109     10.44
555     26.08   .       .       111     111     10.54
556     26.10   .       .       97      113     10.63
557     26.12   .       .       95      115     10.72
558     26.14   .       .       103     117     10.82
559     26.16   .       .       116     120     10.95
560     26.18   .       .       116     124     11.14
561     26.20   .       .       123     128     11.31
562     26.22   .       .       123     134     11.58
563     26.24   .       .       135     142     11.92
564     26.26   .       .       141     151     12.29
565     26.28   .       .       164     164     12.81
566     26.30   .       .       177     181     13.45
567     26.32   .       .       183     203     14.25
568     26.34   .       .       212     234     15.30
569     26.36   .       .       296     275     16.58
570     26.38   .       .       314     328     18.11
571     26.40   .       .       399     394     19.85
572     26.42   .       .       428     467     21.61
573     26.44   .       .       496     531     23.04
574     26.46   .       .       563     568     23.83
575     26.48   .       .       560     568     23.83
576     26.50   .       .       548     538     23.19
577     26.52   .       .       501     489     22.11
578     26.54   .       .       431     429     20.71
579     26.56   .       .       345     365     19.10
580     26.58   .       .       266     305     17.46
581     26.60   .       .       244     256     16.00
582     26.62   .       .       199     218     14.76
583     26.64   .       .       178     191     13.82
584     26.66   .       .       159     170     13.04
585     26.68   .       .       150     155     12.45
586     26.70   .       .       134     144     12.00
587     26.72   .       .       133     136     11.66
588     26.74   .       .       125     129     11.36
589     26.76   .       .       130     124     11.14
590     26.78   .       .       117     120     10.95
591     26.80   .       .       100     117     10.82
592     26.82   .       .       101     114     10.68
593     26.84   .       .       94      112     10.58
594     26.86   .       .       88      111     10.54
595     26.88   .       .       91      109     10.44
596     26.90   .       .       99      108     10.39
597     26.92   .       .       99      107     10.34
598     26.94   .       .       81      106     10.30
599     26.96   .       .       84      105     10.25
600     26.98   .       .       94      105     10.25
601     27.00   .       .       94      104     10.20
602     27.02   .       .       95      104     10.20
603     27.04   .       .       84      103     10.15
604     27.06   .       .       105     103     10.15
605     27.08   .       .       101     102     10.10
606     27.10   .       .       113     102     10.10
607     27.12   .       .       107     102     10.10
608     27.14   .       .       112     102     10.10
609     27.16   .       .       115     101     10.05
610     27.18   .       .       116     101     10.05
611     27.20   .       .       125     101     10.05
612     27.22   .       .       119     101     10.05
613     27.24   .       .       110     101     10.05
614     27.26   .       .       112     101     10.05
615     27.28   .       .       94      100     10.00
616     27.30   .       .       81      100     10.00
617     27.32   .       .       104     100     10.00
618     27.34   .       .       86      100     10.00
619     27.36   .       .       83      100     10.00
620     27.38   .       .       85      100     10.00
621     27.40   .       .       73      100     10.00
622     27.42   .       .       94      100     10.00
623     27.44   .       .       94      99      9.95
624     27.46   .       .       93      99      9.95
625     27.48   .       .       97      99      9.95
626     27.50   .       .       87      99      9.95
627     27.52   .       .       89      99      9.95
628     27.54   .       .       98      99      9.95
629     27.56   .       .       101     99      9.95
630     27.58   .       .       90      99      9.95
631     27.60   .       .       126     99      9.95
632     27.62   .       .       98      99      9.95
633     27.64   .       .       97      99      9.95
634     27.66   .       .       112     99      9.95
635     27.68   .       .       83      99      9.95
636     27.70   .       .       97      99      9.95
637     27.72   .       .       84      99      9.95
638     27.74   .       .       84      99      9.95
639     27.76   .       .       72      99      9.95
640     27.78   .       .       83      99      9.95
641     27.80   .       .       92      99      9.95
642     27.82   .       .       88      99      9.95
643     27.84   .       .       80      99      9.95
644     27.86   .       .       90      99      9.95
645     27.88   .       .       86      99      9.95
646     27.90   .       .       91      99      9.95
647     27.92   .       .       103     99      9.95
648     27.94   .       .       106     99      9.95
649     27.96   .       .       95      99      9.95
650     27.98   .       .       107     99      9.95
651     28.00   .       .       111     99      9.95
652     28.02   .       .       95      99      9.95
653     28.04   .       .       81      99      9.95
654     28.06   .       .       97      99      9.95
655     28.08   .       .       93      99      9.95
656     28.10   .       .       96      99      9.95
657     28.12   .       .       117     99      9.95
658     28.14   .       .       112     99      9.95
659     28.16   .       .       113     99      9.95
660     28.18   .       .       116     99      9.95
661     28.20   .       .       119     99      9.95
662     28.22   .       .       129     99      9.95
663     28.24   .       .       102     99      9.95
664     28.26   .       .       121     99      9.95
665     28.28   .       .       114     99      9.95
666     28.30   .       .       111     99      9.95
667     28.32   .       .       118     99      9.95
668     28.34   .       .       107     99      9.95
669     28.36   .       .       110     99      9.95
670     28.38   .       .       122     99      9.95
671     28.40   .       .       122     99      9.95
672     28.42   .       .       92      99      9.95
673     28.44   .       .       112     99      9.95
674     28.46   .       .       97      99      9.95
675     28.48   .       .       105     99      9.95
676     28.50   .       .       92      99      9.95
677     28.52   .       .       85      99      9.95
678     28.54   .       .       93      99      9.95
679     28.56   .       .       66      99      9.95
680     28.58   .       .       87      99      9.95
681     28.60   .       .       80      99      9.95
682     28.62   .       .       114     99      9.95
683     28.64   .       .       88      99      9.95
684     28.66   .       .       77      99      9.95
685     28.68   .       .       85      99      9.95
686     28.70   .       .       81      99      9.95
687     28.72   .       .       91      100     10.00
688     28.74   .       .       71      100     10.00
689     28.76   .       .       85      100     10.00
690     28.78   .       .       107     100     10.00
691     28.80   .       .       79      100     10.00
692     28.82   .       .       105     100     10.00
693     28.84   .       .       81      100     10.00
694     28.86   .       .       87      100     10.00
695     28.88   .       .       82      101     10.05
696     28.90   .       .       92      101     10.05
697     28.92   .       .       92      101     10.05
698     28.94   .       .       101     102     10.10
699     28.96   .       .       103     103     10.15
700     28.98   .       .       90      104     10.20
701     29.00   .       .       70      105     10.25
702     29.02   .       .       93      105     10.25
703     29.04   .       .       76      105     10.25
704     29.06   .       .       93      105     10.25
705     29.08   .       .       101     104     10.20
706     29.10   .       .       90      104     10.20
707     29.12   .       .       110     103     10.15
708     29.14   .       .       84      102     10.10
709     29.16   .       .       121     101     10.05
710     29.18   .       .       105     101     10.05
711     29.20   .       .       84      101     10.05
712     29.22   .       .       108     100     10.00
713     29.24   .       .       100     100     10.00
714     29.26   .       .       92      100     10.00
715     29.28   .       .       108     100     10.00
716     29.30   .       .       109     100     10.00
717     29.32   .       .       101     100     10.00
718     29.34   .       .       116     100     10.00
719     29.36   .       .       155     100     10.00
720     29.38   .       .       148     100     10.00
721     29.40   .       .       202     100     10.00
722     29.42   .       .       254     100     10.00
723     29.44   .       .       250     100     10.00
724     29.46   .       .       293     100     10.00
725     29.48   .       .       284     100     10.00
726     29.50   .       .       251     100     10.00
727     29.52   .       .       217     100     10.00
728     29.54   .       .       204     100     10.00
729     29.56   .       .       188     100     10.00
730     29.58   .       .       182     100     10.00
731     29.60   .       .       159     100     10.00
732     29.62   .       .       145     100     10.00
733     29.64   .       .       148     100     10.00
734     29.66   .       .       141     100     10.00
735     29.68   .       .       110     100     10.00
736     29.70   .       .       136     100     10.00
737     29.72   .       .       115     100     10.00
738     29.74   .       .       96      100     10.00
739     29.76   .       .       103     100     10.00
740     29.78   .       .       96      100     10.00
741     29.80   .       .       77      100     10.00
742     29.82   .       .       100     100     10.00
743     29.84   .       .       93      100     10.00
744     29.86   .       .       90      100     10.00
745     29.88   .       .       109     100     10.00
746     29.90   .       .       104     100     10.00
747     29.92   .       .       100     100     10.00
748     29.94   .       .       91      100     10.00
749     29.96   .       .       80      100     10.00
750     29.98   .       .       88      100     10.00
751     30.00   .       .       81      100     10.00
752     30.02   .       .       67      100     10.00
753     30.04   .       .       79      100     10.00
754     30.06   .       .       96      100     10.00
755     30.08   .       .       80      100     10.00
756     30.10   .       .       76      100     10.00
757     30.12   .       .       80      100     10.00
758     30.14   .       .       89      100     10.00
759     30.16   .       .       98      100     10.00
760     30.18   .       .       94      100     10.00
761     30.20   .       .       79      100     10.00
762     30.22   .       .       85      100     10.00
763     30.24   .       .       78      100     10.00
764     30.26   .       .       89      100     10.00
765     30.28   .       .       98      100     10.00
766     30.30   .       .       82      100     10.00
767     30.32   .       .       94      100     10.00
768     30.34   .       .       82      100     10.00
769     30.36   .       .       95      100     10.00
770     30.38   .       .       106     100     10.00
771     30.40   .       .       80      100     10.00
772     30.42   .       .       100     100     10.00
773     30.44   .       .       86      100     10.00
774     30.46   .       .       89      100     10.00
775     30.48   .       .       89      100     10.00
776     30.50   .       .       84      100     10.00
777     30.52   .       .       77      100     10.00
778     30.54   .       .       97      100     10.00
779     30.56   .       .       85      100     10.00
780     30.58   .       .       100     101     10.05
781     30.60   .       .       83      101     10.05
782     30.62   .       .       98      101     10.05
783     30.64   .       .       82      101     10.05
784     30.66   .       .       80      101     10.05
785     30.68   .       .       93      101     10.05
786     30.70   .       .       85      101     10.05
787     30.72   .       .       83      101     10.05
788     30.74   .       .       79      101     10.05
789     30.76   .       .       92      101     10.05
790     30.78   .       .       86      101     10.05
791     30.80   .       .       104     101     10.05
792     30.82   .       .       89      101     10.05
793     30.84   .       .       94      101     10.05
794     30.86   .       .       101     101     10.05
795     30.88   .       .       87      101     10.05
796     30.90   .       .       98      101     10.05
797     30.92   .       .       90      101     10.05
798     30.94   .       .       108     101     10.05
799     30.96   .       .       94      101     10.05
800     30.98   .       .       82      101     10.05
801     31.00   .       .       83      101     10.05
802     31.02   .       .       97      101     10.05
803     31.04   .       .       94      101     10.05
804     31.06   .       .       94      101     10.05
805     31.08   .       .       88      101     10.05
806     31.10   .       .       106     101     10.05
807     31.12   .       .       98      101     10.05
808     31.14   .       .       89      101     10.05
809     31.16   .       .       77      101     10.05
810     31.18   .       .       91      101     10.05
811     31.20   .       .       93      101     10.05
812     31.22   .       .       80      101     10.05
813     31.24   .       .       84      101     10.05
814     31.26   .       .       92      101     10.05
815     31.28   .       .       88      101     10.05
816     31.30   .       .       80      101     10.05
817     31.32   .       .       98      101     10.05
818     31.34   .       .       82      101     10.05
819     31.36   .       .       90      101     10.05
820     31.38   .       .       127     101     10.05
821     31.40   .       .       112     101     10.05
822     31.42   .       .       92      101     10.05
823     31.44   .       .       92      101     10.05
824     31.46   .       .       98      101     10.05
825     31.48   .       .       82      101     10.05
826     31.50   .       .       72      101     10.05
827     31.52   .       .       100     101     10.05
828     31.54   .       .       78      101     10.05
829     31.56   .       .       98      101     10.05
830     31.58   .       .       76      101     10.05
831     31.60   .       .       84      101     10.05
832     31.62   .       .       82      101     10.05
833     31.64   .       .       92      101     10.05
834     31.66   .       .       98      101     10.05
835     31.68   .       .       97      101     10.05
836     31.70   .       .       92      101     10.05
837     31.72   .       .       92      101     10.05
838     31.74   .       .       86      101     10.05
839     31.76   .       .       94      101     10.05
840     31.78   .       .       105     101     10.05
841     31.80   .       .       129     101     10.05
842     31.82   .       .       103     101     10.05
843     31.84   .       .       99      102     10.10
844     31.86   .       .       138     102     10.10
845     31.88   .       .       131     102     10.10
846     31.90   .       .       101     102     10.10
847     31.92   .       .       115     102     10.10
848     31.94   .       .       125     102     10.10
849     31.96   .       .       107     102     10.10
850     31.98   .       .       122     102     10.10
851     32.00   .       .       92      102     10.10
852     32.02   .       .       114     102     10.10
853     32.04   .       .       84      102     10.10
854     32.06   .       .       93      102     10.10
855     32.08   .       .       96      102     10.10
856     32.10   .       .       93      102     10.10
857     32.12   .       .       105     102     10.10
858     32.14   .       .       96      102     10.10
859     32.16   .       .       111     102     10.10
860     32.18   .       .       105     102     10.10
861     32.20   .       .       88      102     10.10
862     32.22   .       .       102     102     10.10
863     32.24   .       .       95      102     10.10
864     32.26   .       .       115     102     10.10
865     32.28   .       .       117     102     10.10
866     32.30   .       .       102     102     10.10
867     32.32   .       .       105     102     10.10
868     32.34   .       .       93      102     10.10
869     32.36   .       .       111     102     10.10
870     32.38   .       .       105     105     10.25
871     32.40   .       .       102     105     10.25
872     32.42   .       .       115     105     10.25
873     32.44   .       .       95      105     10.25
874     32.46   .       .       118     106     10.30
875     32.48   .       .       101     107     10.34
876     32.50   .       .       104     108     10.39
877     32.52   .       .       90      108     10.39
878     32.54   .       .       122     108     10.39
879     32.56   .       .       105     109     10.44
880     32.58   .       .       98      109     10.44
881     32.60   .       .       145     110     10.49
882     32.62   .       .       137     110     10.49
883     32.64   .       .       120     111     10.54
884     32.66   .       .       107     111     10.54
885     32.68   .       .       102     112     10.58
886     32.70   .       .       114     113     10.63
887     32.72   .       .       122     113     10.63
888     32.74   .       .       136     114     10.68
889     32.76   .       .       124     115     10.72
890     32.78   .       .       138     121     11.00
891     32.80   .       .       135     122     11.05
892     32.82   .       .       150     129     11.36
893     32.84   .       .       138     131     11.45
894     32.86   .       .       140     133     11.53
895     32.88   .       .       135     138     11.75
896     32.90   .       .       157     144     12.00
897     32.92   .       .       177     147     12.12
898     32.94   .       .       185     151     12.29
899     32.96   .       .       237     155     12.45
900     32.98   .       .       233     160     12.65
901     33.00   .       .       275     168     12.96
902     33.02   .       .       284     174     13.19
903     33.04   .       .       314     182     13.49
904     33.06   .       .       292     191     13.82
905     33.08   .       .       287     202     14.21
906     33.10   .       .       280     215     14.66
907     33.12   .       .       247     230     15.17
908     33.14   .       .       251     247     15.72
909     33.16   .       .       306     269     16.40
910     33.18   .       .       316     296     17.20
911     33.20   .       .       327     330     18.17
912     33.22   .       .       427     373     19.31
913     33.24   .       .       422     427     20.66
914     33.26   .       .       465     498     22.32
915     33.28   .       .       515     591     24.31
916     33.30   .       .       695     709     26.63
917     33.32   .       .       756     857     29.27
918     33.34   .       .       1009    1029    32.08
919     33.36   .       .       1074    1205    34.71
920     33.38   .       .       1263    1347    36.70
921     33.40   .       .       1403    1425    37.75
922     33.42   .       .       1369    1434    37.87
923     33.44   .       .       1421    1406    37.50
924     33.46   .       .       1399    1367    36.97
925     33.48   .       .       1238    1322    36.36
926     33.50   .       .       1240    1277    35.74
927     33.52   .       .       1105    1252    35.38
928     33.54   .       .       1192    1273    35.68
929     33.56   .       .       1299    1363    36.92
930     33.58   .       .       1505    1543    39.28
931     33.60   .       .       1756    1830    42.78
932     33.62   .       .       2181    2234    47.27
933     33.64   .       .       2636    2737    52.32
934     33.66   .       .       3150    3258    57.08
935     33.68   .       .       3579    3656    60.46
936     33.70   .       .       3937    3813    61.75
937     33.72   .       .       3970    3734    61.11
938     33.74   .       .       3766    3524    59.36
939     33.76   .       .       3484    3268    57.17
940     33.78   .       .       2988    2979    54.58
941     33.80   .       .       2764    2655    51.53
942     33.82   .       .       2404    2334    48.31
943     33.84   .       .       2152    2061    45.40
944     33.86   .       .       1766    1839    42.88
945     33.88   .       .       1625    1635    40.44
946     33.90   .       .       1398    1433    37.85
947     33.92   .       .       1241    1251    35.37
948     33.94   .       .       1069    1097    33.12
949     33.96   .       .       933     958     30.95
950     33.98   .       .       767     819     28.62
951     34.00   .       .       653     687     26.21
952     34.02   .       .       551     573     23.94
953     34.04   .       .       437     482     21.95
954     34.06   .       .       371     413     20.32
955     34.08   .       .       299     360     18.97
956     34.10   .       .       260     319     17.86
957     34.12   .       .       254     287     16.94
958     34.14   .       .       197     262     16.19
959     34.16   .       .       201     241     15.52
960     34.18   .       .       180     225     15.00
961     34.20   .       .       166     211     14.53
962     34.22   .       .       147     199     14.11
963     34.24   .       .       150     189     13.75
964     34.26   .       .       173     181     13.45
965     34.28   .       .       127     174     13.19
966     34.30   .       .       141     168     12.96
967     34.32   .       .       133     162     12.73
968     34.34   .       .       110     157     12.53
969     34.36   .       .       141     153     12.37
970     34.38   .       .       124     149     12.21
971     34.40   .       .       133     146     12.08
972     34.42   .       .       120     143     11.96
973     34.44   .       .       106     138     11.75
974     34.46   .       .       126     135     11.62
975     34.48   .       .       103     133     11.53
976     34.50   .       .       102     131     11.45
977     34.52   .       .       126     128     11.31
978     34.54   .       .       101     127     11.27
979     34.56   .       .       106     126     11.22
980     34.58   .       .       108     124     11.14
981     34.60   .       .       133     123     11.09
982     34.62   .       .       131     118     10.86
983     34.64   .       .       156     113     10.63
984     34.66   .       .       162     113     10.63
985     34.68   .       .       168     112     10.58
986     34.70   .       .       161     110     10.49
987     34.72   .       .       162     107     10.34
988     34.74   .       .       129     107     10.34
989     34.76   .       .       151     107     10.34
990     34.78   .       .       138     107     10.34
991     34.80   .       .       143     105     10.25
992     34.82   .       .       124     105     10.25
993     34.84   .       .       91      105     10.25
994     34.86   .       .       116     105     10.25
995     34.88   .       .       108     104     10.20
996     34.90   .       .       106     104     10.20
997     34.92   .       .       107     104     10.20
998     34.94   .       .       118     104     10.20
999     34.96   .       .       102     104     10.20
1000    34.98   .       .       91      104     10.20
1001    35.00   .       .       112     104     10.20
1002    35.02   .       .       114     105     10.25
1003    35.04   .       .       95      105     10.25
1004    35.06   .       .       101     105     10.25
1005    35.08   .       .       93      105     10.25
1006    35.10   .       .       88      105     10.25
1007    35.12   .       .       93      105     10.25
1008    35.14   .       .       104     105     10.25
1009    35.16   .       .       93      105     10.25
1010    35.18   .       .       79      105     10.25
1011    35.20   .       .       101     105     10.25
1012    35.22   .       .       109     105     10.25
1013    35.24   .       .       101     105     10.25
1014    35.26   .       .       82      105     10.25
1015    35.28   .       .       110     105     10.25
1016    35.30   .       .       102     105     10.25
1017    35.32   .       .       100     106     10.30
1018    35.34   .       .       99      106     10.30
1019    35.36   .       .       100     106     10.30
1020    35.38   .       .       106     107     10.34
1021    35.40   .       .       100     107     10.34
1022    35.42   .       .       111     108     10.39
1023    35.44   .       .       113     109     10.44
1024    35.46   .       .       84      110     10.49
1025    35.48   .       .       89      111     10.54
1026    35.50   .       .       100     112     10.58
1027    35.52   .       .       107     113     10.63
1028    35.54   .       .       111     113     10.63
1029    35.56   .       .       111     113     10.63
1030    35.58   .       .       106     112     10.58
1031    35.60   .       .       86      112     10.58
1032    35.62   .       .       117     111     10.54
1033    35.64   .       .       107     110     10.49
1034    35.66   .       .       108     109     10.44
1035    35.68   .       .       95      108     10.39
1036    35.70   .       .       93      108     10.39
1037    35.72   .       .       104     107     10.34
1038    35.74   .       .       130     107     10.34
1039    35.76   .       .       105     106     10.30
1040    35.78   .       .       103     106     10.30
1041    35.80   .       .       97      106     10.30
1042    35.82   .       .       102     106     10.30
1043    35.84   .       .       89      106     10.30
1044    35.86   .       .       115     106     10.30
1045    35.88   .       .       113     106     10.30
1046    35.90   .       .       109     106     10.30
1047    35.92   .       .       103     106     10.30
1048    35.94   .       .       112     106     10.30
1049    35.96   .       .       98      105     10.25
1050    35.98   .       .       89      105     10.25
1051    36.00   .       .       97      105     10.25
1052    36.02   .       .       104     105     10.25
1053    36.04   .       .       85      105     10.25
1054    36.06   .       .       103     105     10.25
1055    36.08   .       .       92      105     10.25
1056    36.10   .       .       105     105     10.25
1057    36.12   .       .       105     105     10.25
1058    36.14   .       .       92      105     10.25
1059    36.16   .       .       102     106     10.30
1060    36.18   .       .       101     106     10.30
1061    36.20   .       .       105     106     10.30
1062    36.22   .       .       96      106     10.30
1063    36.24   .       .       114     106     10.30
1064    36.26   .       .       97      106     10.30
1065    36.28   .       .       118     106     10.30
1066    36.30   .       .       107     106     10.30
1067    36.32   .       .       105     106     10.30
1068    36.34   .       .       95      106     10.30
1069    36.36   .       .       99      106     10.30
1070    36.38   .       .       94      106     10.30
1071    36.40   .       .       100     106     10.30
1072    36.42   .       .       122     106     10.30
1073    36.44   .       .       91      106     10.30
1074    36.46   .       .       103     106     10.30
1075    36.48   .       .       125     106     10.30
1076    36.50   .       .       109     106     10.30
1077    36.52   .       .       77      108     10.39
1078    36.54   .       .       114     108     10.39
1079    36.56   .       .       112     108     10.39
1080    36.58   .       .       118     108     10.39
1081    36.60   .       .       91      108     10.39
1082    36.62   .       .       119     110     10.49
1083    36.64   .       .       99      110     10.49
1084    36.66   .       .       130     110     10.49
1085    36.68   .       .       106     110     10.49
1086    36.70   .       .       117     111     10.54
1087    36.72   .       .       114     111     10.54
1088    36.74   .       .       92      111     10.54
1089    36.76   .       .       113     111     10.54
1090    36.78   .       .       122     112     10.58
1091    36.80   .       .       105     112     10.58
1092    36.82   .       .       102     112     10.58
1093    36.84   .       .       122     113     10.63
1094    36.86   .       .       121     113     10.63
1095    36.88   .       .       125     114     10.68
1096    36.90   .       .       105     114     10.68
1097    36.92   .       .       130     119     10.91
1098    36.94   .       .       121     119     10.91
1099    36.96   .       .       114     120     10.95
1100    36.98   .       .       114     121     11.00
1101    37.00   .       .       111     122     11.05
1102    37.02   .       .       139     126     11.22
1103    37.04   .       .       129     127     11.27
1104    37.06   .       .       118     129     11.36
1105    37.08   .       .       123     130     11.40
1106    37.10   .       .       156     132     11.49
1107    37.12   .       .       138     135     11.62
1108    37.14   .       .       160     137     11.70
1109    37.16   .       .       150     140     11.83
1110    37.18   .       .       133     143     11.96
1111    37.20   .       .       152     147     12.12
1112    37.22   .       .       139     151     12.29
1113    37.24   .       .       171     156     12.49
1114    37.26   .       .       150     162     12.73
1115    37.28   .       .       175     169     13.00
1116    37.30   .       .       183     178     13.34
1117    37.32   .       .       184     188     13.71
1118    37.34   .       .       199     200     14.14
1119    37.36   .       .       222     215     14.66
1120    37.38   .       .       210     234     15.30
1121    37.40   .       .       288     257     16.03
1122    37.42   .       .       305     287     16.94
1123    37.44   .       .       335     326     18.06
1124    37.46   .       .       384     375     19.36
1125    37.48   .       .       444     439     20.95
1126    37.50   .       .       516     518     22.76
1127    37.52   .       .       614     613     24.76
1128    37.54   .       .       704     715     26.74
1129    37.56   .       .       831     807     28.41
1130    37.58   .       .       923     866     29.43
1131    37.60   .       .       964     883     29.72
1132    37.62   .       .       952     866     29.43
1133    37.64   .       .       893     836     28.91
1134    37.66   .       .       807     801     28.30
1135    37.68   .       .       724     761     27.59
1136    37.70   .       .       716     715     26.74
1137    37.72   .       .       747     669     25.87
1138    37.74   .       .       653     637     25.24
1139    37.76   .       .       685     626     25.02
1140    37.78   .       .       699     643     25.36
1141    37.80   .       .       747     693     26.32
1142    37.82   .       .       835     779     27.91
1143    37.84   .       .       884     901     30.02
1144    37.86   .       .       1034    1050    32.40
1145    37.88   .       .       1150    1199    34.63
1146    37.90   .       .       1185    1303    36.10
1147    37.92   .       .       1222    1327    36.43
1148    37.94   .       .       1307    1279    35.76
1149    37.96   .       .       1171    1200    34.64
1150    37.98   .       .       1068    1116    33.41
1151    38.00   .       .       1021    1024    32.00
1152    38.02   .       .       850     911     30.18
1153    38.04   .       .       737     782     27.96
1154    38.06   .       .       645     654     25.57
1155    38.08   .       .       557     543     23.30
1156    38.10   .       .       436     454     21.31
1157    38.12   .       .       370     386     19.65
1158    38.14   .       .       322     333     18.25
1159    38.16   .       .       268     293     17.12
1160    38.18   .       .       261     262     16.19
1161    38.20   .       .       234     238     15.43
1162    38.22   .       .       226     219     14.80
1163    38.24   .       .       209     203     14.25
1164    38.26   .       .       217     191     13.82
1165    38.28   .       .       218     181     13.45
1166    38.30   .       .       174     172     13.11
1167    38.32   .       .       192     165     12.85
1168    38.34   .       .       189     159     12.61
1169    38.36   .       .       185     154     12.41
1170    38.38   .       .       186     149     12.21
1171    38.40   .       .       169     145     12.04
1172    38.42   .       .       183     142     11.92
1173    38.44   .       .       175     139     11.79
1174    38.46   .       .       161     141     11.87
1175    38.48   .       .       170     139     11.79
1176    38.50   .       .       171     137     11.70
1177    38.52   .       .       180     135     11.62
1178    38.54   .       .       168     134     11.58
1179    38.56   .       .       172     135     11.62
1180    38.58   .       .       216     134     11.58
1181    38.60   .       .       236     133     11.53
1182    38.62   .       .       253     132     11.49
1183    38.64   .       .       254     132     11.49
1184    38.66   .       .       300     131     11.45
1185    38.68   .       .       273     131     11.45
1186    38.70   .       .       316     129     11.36
1187    38.72   .       .       282     129     11.36
1188    38.74   .       .       297     129     11.36
1189    38.76   .       .       291     129     11.36
1190    38.78   .       .       252     129     11.36
1191    38.80   .       .       253     129     11.36
1192    38.82   .       .       259     137     11.70
1193    38.84   .       .       249     138     11.75
1194    38.86   .       .       218     141     11.87
1195    38.88   .       .       207     142     11.92
1196    38.90   .       .       201     144     12.00
1197    38.92   .       .       188     155     12.45
1198    38.94   .       .       205     154     12.41
1199    38.96   .       .       179     157     12.53
1200    38.98   .       .       171     161     12.69
1201    39.00   .       .       187     164     12.81
1202    39.02   .       .       153     168     12.96
1203    39.04   .       .       184     171     13.08
1204    39.06   .       .       220     176     13.27
1205    39.08   .       .       208     182     13.49
1206    39.10   .       .       216     189     13.75
1207    39.12   .       .       217     200     14.14
1208    39.14   .       .       227     208     14.42
1209    39.16   .       .       214     218     14.76
1210    39.18   .       .       241     230     15.17
1211    39.20   .       .       288     243     15.59
1212    39.22   .       .       270     259     16.09
1213    39.24   .       .       295     278     16.67
1214    39.26   .       .       327     300     17.32
1215    39.28   .       .       381     327     18.08
1216    39.30   .       .       357     360     18.97
1217    39.32   .       .       427     401     20.02
1218    39.34   .       .       428     452     21.26
1219    39.36   .       .       494     517     22.74
1220    39.38   .       .       591     600     24.49
1221    39.40   .       .       657     705     26.55
1222    39.42   .       .       783     840     28.98
1223    39.44   .       .       954     1005    31.70
1224    39.46   .       .       1164    1197    34.60
1225    39.48   .       .       1343    1394    37.34
1226    39.50   .       .       1517    1558    39.47
1227    39.52   .       .       1792    1654    40.67
1228    39.54   .       .       1733    1676    40.94
1229    39.56   .       .       1776    1656    40.69
1230    39.58   .       .       1731    1633    40.41
1231    39.60   .       .       1724    1619    40.24
1232    39.62   .       .       1623    1610    40.12
1233    39.64   .       .       1652    1606    40.07
1234    39.66   .       .       1734    1630    40.37
1235    39.68   .       .       1695    1710    41.35
1236    39.70   .       .       1866    1869    43.23
1237    39.72   .       .       2114    2121    46.05
1238    39.74   .       .       2275    2482    49.82
1239    39.76   .       .       2843    2969    54.49
1240    39.78   .       .       3178    3574    59.78
1241    39.80   .       .       3807    4210    64.88
1242    39.82   .       .       4190    4711    68.64
1243    39.84   .       .       4465    4907    70.05
1244    39.86   .       .       4745    4764    69.02
1245    39.88   .       .       4482    4420    66.48
1246    39.90   .       .       4143    4055    63.68
1247    39.92   .       .       3882    3719    60.98
1248    39.94   .       .       3278    3347    57.85
1249    39.96   .       .       2897    2890    53.76
1250    39.98   .       .       2395    2379    48.77
1251    40.00   .       .       1992    1899    43.58
1252    40.02   .       .       1615    1506    38.81
1253    40.04   .       .       1301    1205    34.71
1254    40.06   .       .       986     980     31.30
1255    40.08   .       .       814     812     28.50
1256    40.10   .       .       667     686     26.19
1257    40.12   .       .       577     589     24.27
1258    40.14   .       .       533     514     22.67
1259    40.16   .       .       460     454     21.31
1260    40.18   .       .       394     407     20.17
1261    40.20   .       .       377     368     19.18
1262    40.22   .       .       368     336     18.33
1263    40.24   .       .       323     310     17.61
1264    40.26   .       .       311     287     16.94
1265    40.28   .       .       248     269     16.40
1266    40.30   .       .       301     253     15.91
1267    40.32   .       .       266     239     15.46
1268    40.34   .       .       274     227     15.07
1269    40.36   .       .       248     237     15.39
1270    40.38   .       .       218     228     15.10
1271    40.40   .       .       225     221     14.87
1272    40.42   .       .       251     215     14.66
1273    40.44   .       .       220     210     14.49
1274    40.46   .       .       260     216     14.70
1275    40.48   .       .       230     213     14.59
1276    40.50   .       .       218     210     14.49
1277    40.52   .       .       231     208     14.42
1278    40.54   .       .       230     207     14.39
1279    40.56   .       .       233     206     14.35
1280    40.58   .       .       249     205     14.32
1281    40.60   .       .       228     205     14.32
1282    40.62   .       .       279     203     14.25
1283    40.64   .       .       256     204     14.28
1284    40.66   .       .       264     206     14.35
1285    40.68   .       .       284     208     14.42
1286    40.70   .       .       362     211     14.53
1287    40.72   .       .       353     212     14.56
1288    40.74   .       .       408     214     14.63
1289    40.76   .       .       430     219     14.80
1290    40.78   .       .       390     225     15.00
1291    40.80   .       .       382     232     15.23
1292    40.82   .       .       353     248     15.75
1293    40.84   .       .       371     257     16.03
1294    40.86   .       .       370     271     16.46
1295    40.88   .       .       344     278     16.67
1296    40.90   .       .       371     293     17.12
1297    40.92   .       .       352     314     17.72
1298    40.94   .       .       357     334     18.28
1299    40.96   .       .       360     354     18.81
1300    40.98   .       .       400     382     19.54
1301    41.00   .       .       397     412     20.30
1302    41.02   .       .       441     449     21.19
1303    41.04   .       .       502     491     22.16
1304    41.06   .       .       556     543     23.30
1305    41.08   .       .       584     604     24.58
1306    41.10   .       .       663     679     26.06
1307    41.12   .       .       812     771     27.77
1308    41.14   .       .       848     886     29.77
1309    41.16   .       .       1065    1032    32.12
1310    41.18   .       .       1188    1217    34.89
1311    41.20   .       .       1399    1458    38.18
1312    41.22   .       .       1743    1772    42.10
1313    41.24   .       .       2090    2185    46.74
1314    41.26   .       .       2622    2724    52.19
1315    41.28   .       .       3368    3411    58.40
1316    41.30   .       .       4046    4231    65.05
1317    41.32   .       .       4960    5090    71.34
1318    41.34   .       .       5577    5788    76.08
1319    41.36   .       .       6168    6112    78.18
1320    41.38   .       .       6385    6017    77.57
1321    41.40   .       .       6057    5687    75.41
1322    41.42   .       .       5552    5332    73.02
1323    41.44   .       .       5059    5011    70.79
1324    41.46   .       .       4519    4652    68.21
1325    41.48   .       .       3890    4179    64.65
1326    41.50   .       .       3547    3627    60.22
1327    41.52   .       .       3165    3097    55.65
1328    41.54   .       .       2545    2666    51.63
1329    41.56   .       .       2222    2363    48.61
1330    41.58   .       .       2021    2187    46.77
1331    41.60   .       .       1818    2131    46.16
1332    41.62   .       .       2008    2197    46.87
1333    41.64   .       .       2067    2391    48.90
1334    41.66   .       .       2408    2728    52.23
1335    41.68   .       .       2898    3212    56.67
1336    41.70   .       .       3187    3809    61.72
1337    41.72   .       .       3922    4414    66.44
1338    41.74   .       .       4421    4878    69.84
1339    41.76   .       .       4734    5095    71.38
1340    41.78   .       .       5061    5055    71.10
1341    41.80   .       .       4666    4815    69.39
1342    41.82   .       .       4248    4480    66.93
1343    41.84   .       .       3879    4122    64.20
1344    41.86   .       .       3325    3741    61.16
1345    41.88   .       .       3032    3315    57.58
1346    41.90   .       .       2617    2840    53.29
1347    41.92   .       .       2247    2348    48.46
1348    41.94   .       .       1876    1900    43.59
1349    41.96   .       .       1418    1531    39.13
1350    41.98   .       .       1115    1246    35.30
1351    42.00   .       .       877     1029    32.08
1352    42.02   .       .       706     865     29.41
1353    42.04   .       .       591     740     27.20
1354    42.06   .       .       539     642     25.34
1355    42.08   .       .       474     566     23.79
1356    42.10   .       .       440     505     22.47
1357    42.12   .       .       390     455     21.33
1358    42.14   .       .       343     414     20.35
1359    42.16   .       .       365     380     19.49
1360    42.18   .       .       281     351     18.73
1361    42.20   .       .       295     327     18.08
1362    42.22   .       .       289     307     17.52
1363    42.24   .       .       297     289     17.00
1364    42.26   .       .       243     273     16.52
1365    42.28   .       .       227     260     16.12
1366    42.30   .       .       211     248     15.75
1367    42.32   .       .       206     237     15.39
1368    42.34   .       .       215     228     15.10
1369    42.36   .       .       198     219     14.80
1370    42.38   .       .       183     212     14.56
1371    42.40   .       .       175     188     13.71
1372    42.42   .       .       194     182     13.49
1373    42.44   .       .       188     179     13.38
1374    42.46   .       .       167     174     13.19
1375    42.48   .       .       185     172     13.11
1376    42.50   .       .       179     159     12.61
1377    42.52   .       .       183     157     12.53
1378    42.54   .       .       163     154     12.41
1379    42.56   .       .       154     152     12.33
1380    42.58   .       .       161     151     12.29
1381    42.60   .       .       151     149     12.21
1382    42.62   .       .       154     148     12.17
1383    42.64   .       .       153     146     12.08
1384    42.66   .       .       164     145     12.04
1385    42.68   .       .       149     144     12.00
1386    42.70   .       .       151     135     11.62
1387    42.72   .       .       162     135     11.62
1388    42.74   .       .       140     127     11.27
1389    42.76   .       .       143     127     11.27
1390    42.78   .       .       154     127     11.27
1391    42.80   .       .       155     123     11.09
1392    42.82   .       .       180     124     11.14
1393    42.84   .       .       155     124     11.14
1394    42.86   .       .       144     121     11.00
1395    42.88   .       .       138     122     11.05
1396    42.90   .       .       171     123     11.09
1397    42.92   .       .       153     125     11.18
1398    42.94   .       .       139     126     11.22
1399    42.96   .       .       138     128     11.31
1400    42.98   .       .       141     129     11.36
1401    43.00   .       .       142     131     11.45
1402    43.02   .       .       150     134     11.58
1403    43.04   .       .       167     137     11.70
1404    43.06   .       .       168     140     11.83
1405    43.08   .       .       147     144     12.00
1406    43.10   .       .       181     149     12.21
1407    43.12   .       .       174     155     12.45
1408    43.14   .       .       174     162     12.73
1409    43.16   .       .       216     171     13.08
1410    43.18   .       .       223     182     13.49
1411    43.20   .       .       250     197     14.04
1412    43.22   .       .       222     216     14.70
1413    43.24   .       .       263     240     15.49
1414    43.26   .       .       308     273     16.52
1415    43.28   .       .       347     317     17.80
1416    43.30   .       .       433     375     19.36
1417    43.32   .       .       477     449     21.19
1418    43.34   .       .       556     538     23.19
1419    43.36   .       .       564     627     25.04
1420    43.38   .       .       677     698     26.42
1421    43.40   .       .       676     729     27.00
1422    43.42   .       .       768     718     26.80
1423    43.44   .       .       739     680     26.08
1424    43.46   .       .       657     638     25.26
1425    43.48   .       .       593     600     24.49
1426    43.50   .       .       574     562     23.71
1427    43.52   .       .       496     513     22.65
1428    43.54   .       .       490     454     21.31
1429    43.56   .       .       416     390     19.75
1430    43.58   .       .       377     333     18.25
1431    43.60   .       .       299     286     16.91
1432    43.62   .       .       256     249     15.78
1433    43.64   .       .       266     222     14.90
1434    43.66   .       .       204     201     14.18
1435    43.68   .       .       211     185     13.60
1436    43.70   .       .       183     173     13.15
1437    43.72   .       .       181     163     12.77
1438    43.74   .       .       175     156     12.49
1439    43.76   .       .       172     150     12.25
1440    43.78   .       .       188     145     12.04
1441    43.80   .       .       152     140     11.83
1442    43.82   .       .       145     137     11.70
1443    43.84   .       .       145     136     11.66
1444    43.86   .       .       139     135     11.62
1445    43.88   .       .       142     133     11.53
1446    43.90   .       .       136     132     11.49
1447    43.92   .       .       123     131     11.45
1448    43.94   .       .       152     129     11.36
1449    43.96   .       .       163     129     11.36
1450    43.98   .       .       134     129     11.36
1451    44.00   .       .       133     129     11.36
1452    44.02   .       .       140     128     11.31
1453    44.04   .       .       123     128     11.31
1454    44.06   .       .       154     128     11.31
1455    44.08   .       .       160     128     11.31
1456    44.10   .       .       130     128     11.31
1457    44.12   .       .       159     128     11.31
1458    44.14   .       .       133     128     11.31
1459    44.16   .       .       133     129     11.36
1460    44.18   .       .       152     130     11.40
1461    44.20   .       .       149     131     11.45
1462    44.22   .       .       164     132     11.49
1463    44.24   .       .       160     133     11.53
1464    44.26   .       .       145     134     11.58
1465    44.28   .       .       149     135     11.62
1466    44.30   .       .       132     136     11.66
1467    44.32   .       .       138     138     11.75
1468    44.34   .       .       145     140     11.83
1469    44.36   .       .       143     140     11.83
1470    44.38   .       .       155     142     11.92
1471    44.40   .       .       169     143     11.96
1472    44.42   .       .       182     146     12.08
1473    44.44   .       .       136     149     12.21
1474    44.46   .       .       180     152     12.33
1475    44.48   .       .       178     155     12.45
1476    44.50   .       .       157     159     12.61
1477    44.52   .       .       170     163     12.77
1478    44.54   .       .       182     169     13.00
1479    44.56   .       .       163     175     13.23
1480    44.58   .       .       184     183     13.53
1481    44.60   .       .       213     192     13.86
1482    44.62   .       .       235     202     14.21
1483    44.64   .       .       244     215     14.66
1484    44.66   .       .       236     230     15.17
1485    44.68   .       .       230     249     15.78
1486    44.70   .       .       283     272     16.49
1487    44.72   .       .       295     301     17.35
1488    44.74   .       .       392     338     18.38
1489    44.76   .       .       388     385     19.62
1490    44.78   .       .       493     446     21.12
1491    44.80   .       .       570     524     22.89
1492    44.82   .       .       691     623     24.96
1493    44.84   .       .       733     744     27.28
1494    44.86   .       .       826     880     29.66
1495    44.88   .       .       1004    1014    31.84
1496    44.90   .       .       1144    1116    33.41
1497    44.92   .       .       1242    1161    34.07
1498    44.94   .       .       1324    1150    33.91
1499    44.96   .       .       1259    1108    33.29
1500    44.98   .       .       1219    1062    32.59
1501    45.00   .       .       1135    1025    32.02
1502    45.02   .       .       1145    989     31.45
1503    45.04   .       .       997     946     30.76
1504    45.06   .       .       982     896     29.93
1505    45.08   .       .       917     851     29.17
1506    45.10   .       .       934     827     28.76
1507    45.12   .       .       879     830     28.81
1508    45.14   .       .       807     857     29.27
1509    45.16   .       .       838     894     29.90
1510    45.18   .       .       855     920     30.33
1511    45.20   .       .       864     920     30.33
1512    45.22   .       .       865     892     29.87
1513    45.24   .       .       775     845     29.07
1514    45.26   .       .       774     791     28.12
1515    45.28   .       .       687     738     27.17
1516    45.30   .       .       635     686     26.19
1517    45.32   .       .       562     629     25.08
1518    45.34   .       .       548     565     23.77
1519    45.36   .       .       440     497     22.29
1520    45.38   .       .       426     431     20.76
1521    45.40   .       .       379     374     19.34
1522    45.42   .       .       347     326     18.06
1523    45.44   .       .       296     289     17.00
1524    45.46   .       .       273     260     16.12
1525    45.48   .       .       238     237     15.39
1526    45.50   .       .       201     218     14.76
1527    45.52   .       .       194     204     14.28
1528    45.54   .       .       202     192     13.86
1529    45.56   .       .       186     182     13.49
1530    45.58   .       .       177     174     13.19
1531    45.60   .       .       217     168     12.96
1532    45.62   .       .       192     162     12.73
1533    45.64   .       .       205     157     12.53
1534    45.66   .       .       217     153     12.37
1535    45.68   .       .       199     149     12.21
1536    45.70   .       .       205     146     12.08
1537    45.72   .       .       223     143     11.96
1538    45.74   .       .       175     141     11.87
1539    45.76   .       .       184     139     11.79
1540    45.78   .       .       188     137     11.70
1541    45.80   .       .       197     135     11.62
1542    45.82   .       .       204     133     11.53
1543    45.84   .       .       164     132     11.49
1544    45.86   .       .       170     131     11.45
1545    45.88   .       .       168     129     11.36
1546    45.90   .       .       139     128     11.31
1547    45.92   .       .       162     127     11.27
1548    45.94   .       .       168     127     11.27
1549    45.96   .       .       145     126     11.22
1550    45.98   .       .       151     125     11.18
1551    46.00   .       .       171     124     11.14
1552    46.02   .       .       186     122     11.05
1553    46.04   .       .       221     120     10.95
1554    46.06   .       .       209     119     10.91
1555    46.08   .       .       238     119     10.91
1556    46.10   .       .       276     119     10.91
1557    46.12   .       .       317     118     10.86
1558    46.14   .       .       256     117     10.82
1559    46.16   .       .       287     116     10.77
1560    46.18   .       .       220     116     10.77
1561    46.20   .       .       275     116     10.77
1562    46.22   .       .       221     115     10.72
1563    46.24   .       .       216     114     10.68
1564    46.26   .       .       245     114     10.68
1565    46.28   .       .       221     113     10.63
1566    46.30   .       .       194     113     10.63
1567    46.32   .       .       168     113     10.63
1568    46.34   .       .       133     113     10.63
1569    46.36   .       .       155     112     10.58
1570    46.38   .       .       154     112     10.58
1571    46.40   .       .       144     111     10.54
1572    46.42   .       .       136     111     10.54
1573    46.44   .       .       137     111     10.54
1574    46.46   .       .       147     111     10.54
1575    46.48   .       .       138     111     10.54
1576    46.50   .       .       125     111     10.54
1577    46.52   .       .       123     111     10.54
1578    46.54   .       .       160     111     10.54
1579    46.56   .       .       132     111     10.54
1580    46.58   .       .       136     111     10.54
1581    46.60   .       .       148     111     10.54
1582    46.62   .       .       169     111     10.54
1583    46.64   .       .       136     111     10.54
1584    46.66   .       .       157     111     10.54
1585    46.68   .       .       121     111     10.54
1586    46.70   .       .       130     111     10.54
1587    46.72   .       .       146     111     10.54
1588    46.74   .       .       152     111     10.54
1589    46.76   .       .       146     111     10.54
1590    46.78   .       .       151     111     10.54
1591    46.80   .       .       156     111     10.54
1592    46.82   .       .       169     111     10.54
1593    46.84   .       .       158     111     10.54
1594    46.86   .       .       164     111     10.54
1595    46.88   .       .       167     111     10.54
1596    46.90   .       .       183     111     10.54
1597    46.92   .       .       159     111     10.54
1598    46.94   .       .       150     111     10.54
1599    46.96   .       .       166     111     10.54
1600    46.98   .       .       155     111     10.54
1601    47.00   .       .       182     111     10.54
1602    47.02   .       .       179     111     10.54
1603    47.04   .       .       174     111     10.54
1604    47.06   .       .       202     111     10.54
1605    47.08   .       .       186     112     10.58
1606    47.10   .       .       170     112     10.58
1607    47.12   .       .       186     112     10.58
1608    47.14   .       .       166     112     10.58
1609    47.16   .       .       166     135     11.62
1610    47.18   .       .       200     136     11.66
1611    47.20   .       .       202     137     11.70
1612    47.22   .       .       193     138     11.75
1613    47.24   .       .       226     139     11.79
1614    47.26   .       .       210     140     11.83
1615    47.28   .       .       197     153     12.37
1616    47.30   .       .       223     155     12.45
1617    47.32   .       .       215     157     12.53
1618    47.34   .       .       249     159     12.61
1619    47.36   .       .       244     161     12.69
1620    47.38   .       .       283     163     12.77
1621    47.40   .       .       252     166     12.88
1622    47.42   .       .       273     168     12.96
1623    47.44   .       .       256     171     13.08
1624    47.46   .       .       264     174     13.19
1625    47.48   .       .       261     178     13.34
1626    47.50   .       .       277     181     13.45
1627    47.52   .       .       258     185     13.60
1628    47.54   .       .       258     189     13.75
1629    47.56   .       .       276     210     14.49
1630    47.58   .       .       295     216     14.70
1631    47.60   .       .       228     222     14.90
1632    47.62   .       .       281     229     15.13
1633    47.64   .       .       282     236     15.36
1634    47.66   .       .       286     244     15.62
1635    47.68   .       .       270     261     16.16
1636    47.70   .       .       295     272     16.49
1637    47.72   .       .       313     283     16.82
1638    47.74   .       .       294     295     17.18
1639    47.76   .       .       355     309     17.58
1640    47.78   .       .       344     324     18.00
1641    47.80   .       .       383     340     18.44
1642    47.82   .       .       412     359     18.95
1643    47.84   .       .       431     381     19.52
1644    47.86   .       .       422     404     20.10
1645    47.88   .       .       448     432     20.78
1646    47.90   .       .       471     463     21.52
1647    47.92   .       .       553     498     22.32
1648    47.94   .       .       558     539     23.22
1649    47.96   .       .       650     586     24.21
1650    47.98   .       .       711     642     25.34
1651    48.00   .       .       729     707     26.59
1652    48.02   .       .       868     784     28.00
1653    48.04   .       .       950     876     29.60
1654    48.06   .       .       1145    988     31.43
1655    48.08   .       .       1270    1123    33.51
1656    48.10   .       .       1403    1290    35.92
1657    48.12   .       .       1654    1498    38.70
1658    48.14   .       .       1936    1757    41.92
1659    48.16   .       .       2189    2085    45.66
1660    48.18   .       .       2579    2500    50.00
1661    48.20   .       .       3244    3022    54.97
1662    48.22   .       .       3924    3667    60.56
1663    48.24   .       .       4451    4433    66.58
1664    48.26   .       .       5321    5268    72.58
1665    48.28   .       .       6217    6058    77.83
1666    48.30   .       .       6750    6643    81.50
1667    48.32   .       .       7441    6916    83.16
1668    48.34   .       .       7781    6920    83.19
1669    48.36   .       .       7913    6828    82.63
1670    48.38   .       .       7748    6813    82.54
1671    48.40   .       .       7489    6953    83.38
1672    48.42   .       .       7634    7219    84.96
1673    48.44   .       .       7548    7495    86.57
1674    48.46   .       .       7552    7614    87.26
1675    48.48   .       .       7395    7398    86.01
1676    48.50   .       .       7144    6795    82.43
1677    48.52   .       .       6622    5987    77.38
1678    48.54   .       .       5955    5234    72.35
1679    48.56   .       .       5165    4676    68.38
1680    48.58   .       .       4538    4296    65.54
1681    48.60   .       .       4014    3967    62.98
1682    48.62   .       .       3506    3559    59.66
1683    48.64   .       .       3023    3052    55.24
1684    48.66   .       .       2666    2531    50.31
1685    48.68   .       .       2366    2074    45.54
1686    48.70   .       .       1938    1706    41.30
1687    48.72   .       .       1512    1421    37.70
1688    48.74   .       .       1330    1204    34.70
1689    48.76   .       .       1059    1034    32.16
1690    48.78   .       .       893     901     30.02
1691    48.80   .       .       746     794     28.18
1692    48.82   .       .       663     708     26.61
1693    48.84   .       .       581     638     25.26
1694    48.86   .       .       554     579     24.06
1695    48.88   .       .       513     531     23.04
1696    48.90   .       .       449     489     22.11
1697    48.92   .       .       446     454     21.31
1698    48.94   .       .       328     423     20.57
1699    48.96   .       .       371     396     19.90
1700    48.98   .       .       332     373     19.31
1701    49.00   .       .       314     353     18.79
1702    49.02   .       .       309     335     18.30
1703    49.04   .       .       285     319     17.86
1704    49.06   .       .       258     304     17.44
1705    49.08   .       .       255     292     17.09
1706    49.10   .       .       252     280     16.73
1707    49.12   .       .       251     270     16.43
1708    49.14   .       .       238     261     16.16
1709    49.16   .       .       207     252     15.87
1710    49.18   .       .       201     245     15.65
1711    49.20   .       .       216     238     15.43
1712    49.22   .       .       201     232     15.23
1713    49.24   .       .       185     227     15.07
1714    49.26   .       .       170     222     14.90
1715    49.28   .       .       182     217     14.73
1716    49.30   .       .       173     213     14.59
1717    49.32   .       .       181     210     14.49
1718    49.34   .       .       162     207     14.39
1719    49.36   .       .       198     204     14.28
1720    49.38   .       .       169     202     14.21
1721    49.40   .       .       194     200     14.14
1722    49.42   .       .       174     199     14.11
1723    49.44   .       .       156     198     14.07
1724    49.46   .       .       172     197     14.04
1725    49.48   .       .       189     197     14.04
1726    49.50   .       .       198     177     13.30
1727    49.52   .       .       173     179     13.38
1728    49.54   .       .       172     182     13.49
1729    49.56   .       .       199     186     13.64
1730    49.58   .       .       215     192     13.86
1731    49.60   .       .       203     199     14.11
1732    49.62   .       .       227     207     14.39
1733    49.64   .       .       227     193     13.89
1734    49.66   .       .       241     208     14.42
1735    49.68   .       .       245     229     15.13
1736    49.70   .       .       284     255     15.97
1737    49.72   .       .       291     288     16.97
1738    49.74   .       .       332     330     18.17
1739    49.76   .       .       392     380     19.49
1740    49.78   .       .       471     434     20.83
1741    49.80   .       .       493     484     22.00
1742    49.82   .       .       543     521     22.83
1743    49.84   .       .       526     541     23.26
1744    49.86   .       .       588     550     23.45
1745    49.88   .       .       594     554     23.54
1746    49.90   .       .       576     553     23.52
1747    49.92   .       .       533     544     23.32
1748    49.94   .       .       508     525     22.91
1749    49.96   .       .       470     495     22.25
1750    49.98   .       .       472     458     21.40
1751    50.00   .       .       458     421     20.52
1752    50.02   .       .       401     386     19.65
1753    50.04   .       .       343     353     18.79
1754    50.06   .       .       308     320     17.89
1755    50.08   .       .       294     288     16.97
1756    50.10   .       .       253     259     16.09
1757    50.12   .       .       234     234     15.30
1758    50.14   .       .       233     213     14.59
1759    50.16   .       .       208     197     14.04
1760    50.18   .       .       181     183     13.53
1761    50.20   .       .       182     172     13.11
1762    50.22   .       .       158     164     12.81
1763    50.24   .       .       171     157     12.53
1764    50.26   .       .       146     151     12.29
1765    50.28   .       .       128     146     12.08
1766    50.30   .       .       142     142     11.92
1767    50.32   .       .       149     139     11.79
1768    50.34   .       .       131     136     11.66
1769    50.36   .       .       122     133     11.53
1770    50.38   .       .       133     131     11.45
1771    50.40   .       .       135     130     11.40
1772    50.42   .       .       125     128     11.31
1773    50.44   .       .       118     126     11.22
1774    50.46   .       .       120     125     11.18
1775    50.48   .       .       133     124     11.14
1776    50.50   .       .       127     123     11.09
1777    50.52   .       .       128     122     11.05
1778    50.54   .       .       121     121     11.00
1779    50.56   .       .       112     121     11.00
1780    50.58   .       .       111     120     10.95
1781    50.60   .       .       101     119     10.91
1782    50.62   .       .       113     119     10.91
1783    50.64   .       .       120     118     10.86
1784    50.66   .       .       130     118     10.86
1785    50.68   .       .       122     118     10.86
1786    50.70   .       .       142     117     10.82
1787    50.72   .       .       117     117     10.82
1788    50.74   .       .       112     117     10.82
1789    50.76   .       .       106     116     10.77
1790    50.78   .       .       101     116     10.77
1791    50.80   .       .       133     116     10.77
1792    50.82   .       .       104     116     10.77
1793    50.84   .       .       100     115     10.72
1794    50.86   .       .       116     115     10.72
1795    50.88   .       .       130     115     10.72
1796    50.90   .       .       120     115     10.72
1797    50.92   .       .       95      114     10.68
1798    50.94   .       .       111     113     10.63
1799    50.96   .       .       120     113     10.63
1800    50.98   .       .       112     113     10.63
1801    51.00   .       .       116     113     10.63
1802    51.02   .       .       126     113     10.63
1803    51.04   .       .       90      113     10.63
1804    51.06   .       .       111     113     10.63
1805    51.08   .       .       101     113     10.63
1806    51.10   .       .       96      112     10.58
1807    51.12   .       .       99      111     10.54
1808    51.14   .       .       109     111     10.54
1809    51.16   .       .       99      111     10.54
1810    51.18   .       .       109     111     10.54
1811    51.20   .       .       91      111     10.54
1812    51.22   .       .       93      111     10.54
1813    51.24   .       .       129     111     10.54
1814    51.26   .       .       96      111     10.54
1815    51.28   .       .       93      111     10.54
1816    51.30   .       .       118     111     10.54
1817    51.32   .       .       117     111     10.54
1818    51.34   .       .       105     111     10.54
1819    51.36   .       .       114     111     10.54
1820    51.38   .       .       106     112     10.58
1821    51.40   .       .       109     112     10.58
1822    51.42   .       .       97      112     10.58
1823    51.44   .       .       98      112     10.58
1824    51.46   .       .       120     113     10.63
1825    51.48   .       .       109     114     10.68
1826    51.50   .       .       109     114     10.68
1827    51.52   .       .       93      115     10.72
1828    51.54   .       .       108     116     10.77
1829    51.56   .       .       107     117     10.82
1830    51.58   .       .       91      117     10.82
1831    51.60   .       .       114     117     10.82
1832    51.62   .       .       103     116     10.77
1833    51.64   .       .       116     116     10.77
1834    51.66   .       .       96      115     10.72
1835    51.68   .       .       101     115     10.72
1836    51.70   .       .       102     115     10.72
1837    51.72   .       .       100     115     10.72
1838    51.74   .       .       116     114     10.68
1839    51.76   .       .       103     113     10.63
1840    51.78   .       .       111     113     10.63
1841    51.80   .       .       93      113     10.63
1842    51.82   .       .       106     113     10.63
1843    51.84   .       .       107     113     10.63
1844    51.86   .       .       103     113     10.63
1845    51.88   .       .       88      113     10.63
1846    51.90   .       .       92      113     10.63
1847    51.92   .       .       109     113     10.63
1848    51.94   .       .       123     113     10.63
1849    51.96   .       .       103     113     10.63
1850    51.98   .       .       118     113     10.63
1851    52.00   .       .       107     113     10.63
1852    52.02   .       .       115     113     10.63
1853    52.04   .       .       104     114     10.68
1854    52.06   .       .       111     114     10.68
1855    52.08   .       .       107     114     10.68
1856    52.10   .       .       113     114     10.68
1857    52.12   .       .       98      115     10.72
1858    52.14   .       .       104     116     10.77
1859    52.16   .       .       118     116     10.77
1860    52.18   .       .       111     116     10.77
1861    52.20   .       .       114     117     10.82
1862    52.22   .       .       137     117     10.82
1863    52.24   .       .       135     119     10.91
1864    52.26   .       .       131     120     10.95
1865    52.28   .       .       128     120     10.95
1866    52.30   .       .       129     121     11.00
1867    52.32   .       .       148     122     11.05
1868    52.34   .       .       130     123     11.09
1869    52.36   .       .       122     124     11.14
1870    52.38   .       .       121     126     11.22
1871    52.40   .       .       132     127     11.27
1872    52.42   .       .       142     129     11.36
1873    52.44   .       .       147     131     11.45
1874    52.46   .       .       116     133     11.53
1875    52.48   .       .       131     135     11.62
1876    52.50   .       .       142     139     11.79
1877    52.52   .       .       151     142     11.92
1878    52.54   .       .       159     147     12.12
1879    52.56   .       .       146     151     12.29
1880    52.58   .       .       170     155     12.45
1881    52.60   .       .       144     159     12.61
1882    52.62   .       .       166     162     12.73
1883    52.64   .       .       159     165     12.85
1884    52.66   .       .       157     168     12.96
1885    52.68   .       .       160     172     13.11
1886    52.70   .       .       178     177     13.30
1887    52.72   .       .       180     184     13.56
1888    52.74   .       .       202     192     13.86
1889    52.76   .       .       201     203     14.25
1890    52.78   .       .       196     216     14.70
1891    52.80   .       .       251     233     15.26
1892    52.82   .       .       248     255     15.97
1893    52.84   .       .       281     283     16.82
1894    52.86   .       .       290     316     17.78
1895    52.88   .       .       328     351     18.73
1896    52.90   .       .       361     381     19.52
1897    52.92   .       .       421     399     19.97
1898    52.94   .       .       428     404     20.10
1899    52.96   .       .       387     399     19.97
1900    52.98   .       .       405     391     19.77
1901    53.00   .       .       432     387     19.67
1902    53.02   .       .       383     390     19.75
1903    53.04   .       .       374     398     19.95
1904    53.06   .       .       401     407     20.17
1905    53.08   .       .       405     417     20.42
1906    53.10   .       .       405     430     20.74
1907    53.12   .       .       483     447     21.14
1908    53.14   .       .       465     471     21.70
1909    53.16   .       .       476     499     22.34
1910    53.18   .       .       495     527     22.96
1911    53.20   .       .       511     548     23.41
1912    53.22   .       .       548     559     23.64
1913    53.24   .       .       484     563     23.73
1914    53.26   .       .       546     568     23.83
1915    53.28   .       .       508     581     24.10
1916    53.30   .       .       584     600     24.49
1917    53.32   .       .       536     616     24.82
1918    53.34   .       .       567     616     24.82
1919    53.36   .       .       560     595     24.39
1920    53.38   .       .       599     555     23.56
1921    53.40   .       .       518     509     22.56
1922    53.42   .       .       465     467     21.61
1923    53.44   .       .       443     434     20.83
1924    53.46   .       .       401     408     20.20
1925    53.48   .       .       389     383     19.57
1926    53.50   .       .       351     354     18.81
1927    53.52   .       .       310     323     17.97
1928    53.54   .       .       273     292     17.09
1929    53.56   .       .       293     265     16.28
1930    53.58   .       .       219     241     15.52
1931    53.60   .       .       222     222     14.90
1932    53.62   .       .       188     208     14.42
1933    53.64   .       .       207     196     14.00
1934    53.66   .       .       182     187     13.67
1935    53.68   .       .       150     180     13.42
1936    53.70   .       .       188     174     13.19
1937    53.72   .       .       175     170     13.04
1938    53.74   .       .       148     167     12.92
1939    53.76   .       .       165     165     12.85
1940    53.78   .       .       147     164     12.81
1941    53.80   .       .       142     164     12.81
1942    53.82   .       .       152     164     12.81
1943    53.84   .       .       182     166     12.88
1944    53.86   .       .       176     168     12.96
1945    53.88   .       .       189     171     13.08
1946    53.90   .       .       173     176     13.27
1947    53.92   .       .       197     182     13.49
1948    53.94   .       .       176     190     13.78
1949    53.96   .       .       220     200     14.14
1950    53.98   .       .       191     213     14.59
1951    54.00   .       .       238     230     15.17
1952    54.02   .       .       235     250     15.81
1953    54.04   .       .       266     275     16.58
1954    54.06   .       .       279     303     17.41
1955    54.08   .       .       319     332     18.22
1956    54.10   .       .       305     357     18.89
1957    54.12   .       .       334     373     19.31
1958    54.14   .       .       390     377     19.42
1959    54.16   .       .       363     371     19.26
1960    54.18   .       .       368     359     18.95
1961    54.20   .       .       342     349     18.68
1962    54.22   .       .       336     340     18.44
1963    54.24   .       .       309     334     18.28
1964    54.26   .       .       278     329     18.14
1965    54.28   .       .       312     320     17.89
1966    54.30   .       .       297     309     17.58
1967    54.32   .       .       304     299     17.29
1968    54.34   .       .       292     292     17.09
1969    54.36   .       .       256     288     16.97
1970    54.38   .       .       224     291     17.06
1971    54.40   .       .       298     300     17.32
1972    54.42   .       .       281     313     17.69
1973    54.44   .       .       312     328     18.11
1974    54.46   .       .       331     341     18.47
1975    54.48   .       .       330     349     18.68
1976    54.50   .       .       385     350     18.71
1977    54.52   .       .       404     349     18.68
1978    54.54   .       .       378     351     18.73
1979    54.56   .       .       381     357     18.89
1980    54.58   .       .       392     368     19.18
1981    54.60   .       .       377     380     19.49
1982    54.62   .       .       380     384     19.60
1983    54.64   .       .       375     376     19.39
1984    54.66   .       .       342     356     18.87
1985    54.68   .       .       349     332     18.22
1986    54.70   .       .       306     309     17.58
1987    54.72   .       .       300     292     17.09
1988    54.74   .       .       266     280     16.73
1989    54.76   .       .       251     270     16.43
1990    54.78   .       .       254     259     16.09
1991    54.80   .       .       251     244     15.62
1992    54.82   .       .       218     227     15.07
1993    54.84   .       .       188     211     14.53
1994    54.86   .       .       168     197     14.04
1995    54.88   .       .       155     186     13.64
1996    54.90   .       .       168     178     13.34
1997    54.92   .       .       179     171     13.08
1998    54.94   .       .       162     165     12.85
1999    54.96   .       .       138     160     12.65
2000    54.98   .       .       148     156     12.49
2001    55.00   .       .       124     153     12.37
2002    55.02   .       .       125     151     12.29
2003    55.04   .       .       136     149     12.21
2004    55.06   .       .       134     148     12.17
2005    55.08   .       .       127     149     12.21
2006    55.10   .       .       143     149     12.21
2007    55.12   .       .       153     149     12.21
2008    55.14   .       .       142     150     12.25
2009    55.16   .       .       146     151     12.29
2010    55.18   .       .       136     153     12.37
2011    55.20   .       .       150     155     12.45
2012    55.22   .       .       148     158     12.57
2013    55.24   .       .       168     162     12.73
2014    55.26   .       .       149     166     12.88
2015    55.28   .       .       158     171     13.08
2016    55.30   .       .       180     178     13.34
2017    55.32   .       .       177     185     13.60
2018    55.34   .       .       203     194     13.93
2019    55.36   .       .       208     206     14.35
2020    55.38   .       .       211     219     14.80
2021    55.40   .       .       232     236     15.36
2022    55.42   .       .       245     257     16.03
2023    55.44   .       .       258     283     16.82
2024    55.46   .       .       319     316     17.78
2025    55.48   .       .       371     357     18.89
2026    55.50   .       .       392     407     20.17
2027    55.52   .       .       455     466     21.59
2028    55.54   .       .       528     531     23.04
2029    55.56   .       .       604     594     24.37
2030    55.58   .       .       717     645     25.40
2031    55.60   .       .       646     671     25.90
2032    55.62   .       .       678     669     25.87
2033    55.64   .       .       699     646     25.42
2034    55.66   .       .       634     615     24.80
2035    55.68   .       .       618     585     24.19
2036    55.70   .       .       557     562     23.71
2037    55.72   .       .       577     542     23.28
2038    55.74   .       .       524     520     22.80
2039    55.76   .       .       450     489     22.11
2040    55.78   .       .       417     450     21.21
2041    55.80   .       .       443     406     20.15
2042    55.82   .       .       384     363     19.05
2043    55.84   .       .       293     325     18.03
2044    55.86   .       .       277     291     17.06
2045    55.88   .       .       230     265     16.28
2046    55.90   .       .       239     243     15.59
2047    55.92   .       .       225     226     15.03
2048    55.94   .       .       192     213     14.59
2049    55.96   .       .       181     203     14.25
2050    55.98   .       .       198     195     13.96
2051    56.00   .       .       156     190     13.78
2052    56.02   .       .       143     186     13.64
2053    56.04   .       .       169     184     13.56
2054    56.06   .       .       189     184     13.56
2055    56.08   .       .       180     186     13.64
2056    56.10   .       .       181     191     13.82
2057    56.12   .       .       168     197     14.04
2058    56.14   .       .       201     207     14.39
2059    56.16   .       .       213     221     14.87
2060    56.18   .       .       229     237     15.39
2061    56.20   .       .       253     256     16.00
2062    56.22   .       .       276     275     16.58
2063    56.24   .       .       265     290     17.03
2064    56.26   .       .       301     295     17.18
2065    56.28   .       .       273     292     17.09
2066    56.30   .       .       310     281     16.76
2067    56.32   .       .       301     269     16.40
2068    56.34   .       .       235     258     16.06
2069    56.36   .       .       243     251     15.84
2070    56.38   .       .       248     245     15.65
2071    56.40   .       .       247     238     15.43
2072    56.42   .       .       213     229     15.13
2073    56.44   .       .       217     216     14.70
2074    56.46   .       .       211     201     14.18
2075    56.48   .       .       169     187     13.67
2076    56.50   .       .       168     175     13.23
2077    56.52   .       .       141     164     12.81
2078    56.54   .       .       142     156     12.49
2079    56.56   .       .       142     149     12.21
2080    56.58   .       .       129     144     12.00
2081    56.60   .       .       137     139     11.79
2082    56.62   .       .       144     135     11.62
2083    56.64   .       .       137     132     11.49
2084    56.66   .       .       140     130     11.40
2085    56.68   .       .       157     128     11.31
2086    56.70   .       .       142     126     11.22
2087    56.72   .       .       143     125     11.18
2088    56.74   .       .       152     123     11.09
2089    56.76   .       .       196     122     11.05
2090    56.78   .       .       240     121     11.00
2091    56.80   .       .       216     121     11.00
2092    56.82   .       .       212     120     10.95
2093    56.84   .       .       215     120     10.95
2094    56.86   .       .       154     120     10.95
2095    56.88   .       .       167     120     10.95
2096    56.90   .       .       165     118     10.86
2097    56.92   .       .       162     119     10.91
2098    56.94   .       .       167     119     10.91
2099    56.96   .       .       144     121     11.00
2100    56.98   .       .       160     122     11.05
2101    57.00   .       .       125     123     11.09
2102    57.02   .       .       138     124     11.14
2103    57.04   .       .       144     124     11.14
2104    57.06   .       .       125     122     11.05
2105    57.08   .       .       111     121     11.00
2106    57.10   .       .       127     120     10.95
2107    57.12   .       .       115     120     10.95
2108    57.14   .       .       119     119     10.91
2109    57.16   .       .       99      118     10.86
2110    57.18   .       .       97      118     10.86
2111    57.20   .       .       117     117     10.82
2112    57.22   .       .       103     116     10.77
2113    57.24   .       .       92      115     10.72
2114    57.26   .       .       99      113     10.63
2115    57.28   .       .       104     112     10.58
2116    57.30   .       .       99      112     10.58
2117    57.32   .       .       93      111     10.54
2118    57.34   .       .       105     110     10.49
2119    57.36   .       .       93      110     10.49
2120    57.38   .       .       92      109     10.44
2121    57.40   .       .       110     109     10.44
2122    57.42   .       .       94      109     10.44
2123    57.44   .       .       99      108     10.39
2124    57.46   .       .       81      108     10.39
2125    57.48   .       .       99      107     10.34
2126    57.50   .       .       87      107     10.34
2127    57.52   .       .       101     107     10.34
2128    57.54   .       .       81      107     10.34
2129    57.56   .       .       90      107     10.34
2130    57.58   .       .       94      107     10.34
2131    57.60   .       .       95      107     10.34
2132    57.62   .       .       104     106     10.30
2133    57.64   .       .       119     106     10.30
2134    57.66   .       .       99      106     10.30
2135    57.68   .       .       93      106     10.30
2136    57.70   .       .       102     106     10.30
2137    57.72   .       .       105     106     10.30
2138    57.74   .       .       85      106     10.30
2139    57.76   .       .       83      106     10.30
2140    57.78   .       .       85      106     10.30
2141    57.80   .       .       79      106     10.30
2142    57.82   .       .       89      106     10.30
2143    57.84   .       .       93      106     10.30
2144    57.86   .       .       95      106     10.30
2145    57.88   .       .       111     106     10.30
2146    57.90   .       .       108     105     10.25
2147    57.92   .       .       107     105     10.25
2148    57.94   .       .       100     105     10.25
2149    57.96   .       .       90      105     10.25
2150    57.98   .       .       89      105     10.25
2151    58.00   .       .       91      105     10.25
2152    58.02   .       .       89      105     10.25
2153    58.04   .       .       85      105     10.25
2154    58.06   .       .       86      105     10.25
2155    58.08   .       .       109     105     10.25
2156    58.10   .       .       105     105     10.25
2157    58.12   .       .       85      105     10.25
2158    58.14   .       .       88      105     10.25
2159    58.16   .       .       94      105     10.25
2160    58.18   .       .       93      105     10.25
2161    58.20   .       .       107     105     10.25
2162    58.22   .       .       99      105     10.25
2163    58.24   .       .       115     105     10.25
2164    58.26   .       .       77      105     10.25
2165    58.28   .       .       95      105     10.25
2166    58.30   .       .       94      105     10.25
2167    58.32   .       .       86      105     10.25
2168    58.34   .       .       95      105     10.25
2169    58.36   .       .       82      105     10.25
2170    58.38   .       .       95      105     10.25
2171    58.40   .       .       99      105     10.25
2172    58.42   .       .       102     105     10.25
2173    58.44   .       .       89      105     10.25
2174    58.46   .       .       90      105     10.25
2175    58.48   .       .       84      105     10.25
2176    58.50   .       .       99      105     10.25
2177    58.52   .       .       127     105     10.25
2178    58.54   .       .       92      105     10.25
2179    58.56   .       .       83      104     10.20
2180    58.58   .       .       92      106     10.30
2181    58.60   .       .       89      107     10.34
2182    58.62   .       .       106     107     10.34
2183    58.64   .       .       101     107     10.34
2184    58.66   .       .       101     108     10.39
2185    58.68   .       .       103     108     10.39
2186    58.70   .       .       123     108     10.39
2187    58.72   .       .       99      108     10.39
2188    58.74   .       .       128     109     10.44
2189    58.76   .       .       98      110     10.49
2190    58.78   .       .       104     110     10.49
2191    58.80   .       .       119     110     10.49
2192    58.82   .       .       111     110     10.49
2193    58.84   .       .       76      110     10.49
2194    58.86   .       .       110     111     10.54
2195    58.88   .       .       101     111     10.54
2196    58.90   .       .       114     111     10.54
2197    58.92   .       .       103     111     10.54
2198    58.94   .       .       123     112     10.58
2199    58.96   .       .       109     112     10.58
2200    58.98   .       .       99      115     10.72
2201    59.00   .       .       123     115     10.72
2202    59.02   .       .       104     116     10.77
2203    59.04   .       .       102     116     10.77
2204    59.06   .       .       126     117     10.82
2205    59.08   .       .       112     118     10.86
2206    59.10   .       .       125     118     10.86
2207    59.12   .       .       125     119     10.91
2208    59.14   .       .       133     121     11.00
2209    59.16   .       .       118     122     11.05
2210    59.18   .       .       136     123     11.09
2211    59.20   .       .       100     124     11.14
2212    59.22   .       .       125     125     11.18
2213    59.24   .       .       130     131     11.45
2214    59.26   .       .       144     132     11.49
2215    59.28   .       .       118     134     11.58
2216    59.30   .       .       127     140     11.83
2217    59.32   .       .       144     142     11.92
2218    59.34   .       .       157     144     12.00
2219    59.36   .       .       122     147     12.12
2220    59.38   .       .       137     150     12.25
2221    59.40   .       .       145     153     12.37
2222    59.42   .       .       142     159     12.61
2223    59.44   .       .       169     162     12.73
2224    59.46   .       .       158     169     13.00
2225    59.48   .       .       155     174     13.19
2226    59.50   .       .       176     179     13.38
2227    59.52   .       .       168     186     13.64
2228    59.54   .       .       190     193     13.89
2229    59.56   .       .       206     201     14.18
2230    59.58   .       .       201     211     14.53
2231    59.60   .       .       202     222     14.90
2232    59.62   .       .       222     235     15.33
2233    59.64   .       .       230     250     15.81
2234    59.66   .       .       252     269     16.40
2235    59.68   .       .       267     291     17.06
2236    59.70   .       .       324     318     17.83
2237    59.72   .       .       328     350     18.71
2238    59.74   .       .       385     390     19.75
2239    59.76   .       .       437     438     20.93
2240    59.78   .       .       496     497     22.29
2241    59.80   .       .       546     565     23.77
2242    59.82   .       .       607     641     25.32
2243    59.84   .       .       698     719     26.81
2244    59.86   .       .       730     786     28.04
2245    59.88   .       .       813     832     28.84
2246    59.90   .       .       854     850     29.15
2247    59.92   .       .       927     845     29.07
2248    59.94   .       .       929     829     28.79
2249    59.96   .       .       822     815     28.55
2250    59.98   .       .       839     814     28.53
2251    60.00   .       .       887     826     28.74
2252    60.02   .       .       874     849     29.14
2253    60.04   .       .       890     878     29.63
2254    60.06   .       .       949     910     30.17
2255    60.08   .       .       960     944     30.72
2256    60.10   .       .       1050    980     31.30
2257    60.12   .       .       1047    1016    31.87
2258    60.14   .       .       1076    1039    32.23
2259    60.16   .       .       1070    1038    32.22
2260    60.18   .       .       1125    1012    31.81
2261    60.20   .       .       1114    974     31.21
2262    60.22   .       .       1118    942     30.69
2263    60.24   .       .       1061    928     30.46
2264    60.26   .       .       1066    938     30.63
2265    60.28   .       .       1057    969     31.13
2266    60.30   .       .       1099    1015    31.86
2267    60.32   .       .       1093    1071    32.73
2268    60.34   .       .       1260    1135    33.69
2269    60.36   .       .       1262    1217    34.89
2270    60.38   .       .       1451    1326    36.41
2271    60.40   .       .       1552    1467    38.30
2272    60.42   .       .       1643    1637    40.46
2273    60.44   .       .       1740    1818    42.64
2274    60.46   .       .       1928    1979    44.49
2275    60.48   .       .       2064    2086    45.67
2276    60.50   .       .       2063    2116    46.00
2277    60.52   .       .       2158    2070    45.50
2278    60.54   .       .       2064    1972    44.41
2279    60.56   .       .       1920    1855    43.07
2280    60.58   .       .       1718    1747    41.80
2281    60.60   .       .       1639    1661    40.76
2282    60.62   .       .       1473    1591    39.89
2283    60.64   .       .       1422    1521    39.00
2284    60.66   .       .       1379    1432    37.84
2285    60.68   .       .       1262    1318    36.30
2286    60.70   .       .       1156    1182    34.38
2287    60.72   .       .       1033    1039    32.23
2288    60.74   .       .       876     901     30.02
2289    60.76   .       .       719     776     27.86
2290    60.78   .       .       598     671     25.90
2291    60.80   .       .       584     584     24.17
2292    60.82   .       .       423     512     22.63
2293    60.84   .       .       404     455     21.33
2294    60.86   .       .       361     408     20.20
2295    60.88   .       .       358     369     19.21
2296    60.90   .       .       287     337     18.36
2297    60.92   .       .       274     311     17.64
2298    60.94   .       .       271     288     16.97
2299    60.96   .       .       259     269     16.40
2300    60.98   .       .       228     253     15.91
2301    61.00   .       .       226     239     15.46
2302    61.02   .       .       186     227     15.07
2303    61.04   .       .       215     217     14.73
2304    61.06   .       .       193     207     14.39
2305    61.08   .       .       186     199     14.11
2306    61.10   .       .       193     192     13.86
2307    61.12   .       .       182     185     13.60
2308    61.14   .       .       173     179     13.38
2309    61.16   .       .       180     174     13.19
2310    61.18   .       .       169     169     13.00
2311    61.20   .       .       139     165     12.85
2312    61.22   .       .       156     160     12.65
2313    61.24   .       .       158     155     12.45
2314    61.26   .       .       160     152     12.33
2315    61.28   .       .       153     149     12.21
2316    61.30   .       .       134     146     12.08
2317    61.32   .       .       102     144     12.00
2318    61.34   .       .       139     142     11.92
2319    61.36   .       .       132     140     11.83
2320    61.38   .       .       127     137     11.70
2321    61.40   .       .       118     133     11.53
2322    61.42   .       .       108     131     11.45
2323    61.44   .       .       129     130     11.40
2324    61.46   .       .       114     128     11.31
2325    61.48   .       .       96      127     11.27
2326    61.50   .       .       121     126     11.22
2327    61.52   .       .       109     125     11.18
2328    61.54   .       .       113     123     11.09
2329    61.56   .       .       98      122     11.05
2330    61.58   .       .       135     121     11.00
2331    61.60   .       .       118     120     10.95
2332    61.62   .       .       103     120     10.95
2333    61.64   .       .       104     119     10.91
2334    61.66   .       .       107     118     10.86
2335    61.68   .       .       106     118     10.86
2336    61.70   .       .       108     117     10.82
2337    61.72   .       .       112     116     10.77
2338    61.74   .       .       94      111     10.54
2339    61.76   .       .       90      111     10.54
2340    61.78   .       .       108     110     10.49
2341    61.80   .       .       104     107     10.34
2342    61.82   .       .       94      107     10.34
2343    61.84   .       .       94      107     10.34
2344    61.86   .       .       89      107     10.34
2345    61.88   .       .       98      106     10.30
2346    61.90   .       .       86      107     10.34
2347    61.92   .       .       95      104     10.20
2348    61.94   .       .       100     104     10.20
2349    61.96   .       .       89      104     10.20
2350    61.98   .       .       95      103     10.15
2351    62.00   .       .       85      103     10.15
2352    62.02   .       .       92      103     10.15
2353    62.04   .       .       92      103     10.15
2354    62.06   .       .       88      103     10.15
2355    62.08   .       .       86      103     10.15
2356    62.10   .       .       101     104     10.20
2357    62.12   .       .       113     104     10.20
2358    62.14   .       .       82      104     10.20
2359    62.16   .       .       95      104     10.20
2360    62.18   .       .       110     104     10.20
2361    62.20   .       .       103     105     10.25
2362    62.22   .       .       86      105     10.25
2363    62.24   .       .       96      105     10.25
2364    62.26   .       .       81      105     10.25
2365    62.28   .       .       80      106     10.30
2366    62.30   .       .       107     106     10.30
2367    62.32   .       .       105     107     10.34
2368    62.34   .       .       112     107     10.34
2369    62.36   .       .       112     108     10.39
2370    62.38   .       .       92      108     10.39
2371    62.40   .       .       91      109     10.44
2372    62.42   .       .       92      110     10.49
2373    62.44   .       .       106     111     10.54
2374    62.46   .       .       97      112     10.58
2375    62.48   .       .       114     114     10.68
2376    62.50   .       .       119     115     10.72
2377    62.52   .       .       102     117     10.82
2378    62.54   .       .       116     119     10.91
2379    62.56   .       .       99      122     11.05
2380    62.58   .       .       93      125     11.18
2381    62.60   .       .       123     129     11.36
2382    62.62   .       .       134     133     11.53
2383    62.64   .       .       114     138     11.75
2384    62.66   .       .       130     144     12.00
2385    62.68   .       .       141     149     12.21
2386    62.70   .       .       131     152     12.33
2387    62.72   .       .       148     155     12.45
2388    62.74   .       .       146     157     12.53
2389    62.76   .       .       154     159     12.61
2390    62.78   .       .       143     162     12.73
2391    62.80   .       .       154     167     12.92
2392    62.82   .       .       145     173     13.15
2393    62.84   .       .       176     181     13.45
2394    62.86   .       .       173     189     13.75
2395    62.88   .       .       172     199     14.11
2396    62.90   .       .       176     208     14.42
2397    62.92   .       .       175     216     14.70
2398    62.94   .       .       215     224     14.97
2399    62.96   .       .       214     232     15.23
2400    62.98   .       .       183     241     15.52
2401    63.00   .       .       242     253     15.91
2402    63.02   .       .       238     267     16.34
2403    63.04   .       .       230     282     16.79
2404    63.06   .       .       247     298     17.26
2405    63.08   .       .       254     309     17.58
2406    63.10   .       .       237     313     17.69
2407    63.12   .       .       257     310     17.61
2408    63.14   .       .       268     303     17.41
2409    63.16   .       .       251     293     17.12
2410    63.18   .       .       255     283     16.82
2411    63.20   .       .       264     274     16.55
2412    63.22   .       .       240     266     16.31
2413    63.24   .       .       208     259     16.09
2414    63.26   .       .       241     251     15.84
2415    63.28   .       .       219     241     15.52
2416    63.30   .       .       201     230     15.17
2417    63.32   .       .       199     218     14.76
2418    63.34   .       .       195     206     14.35
2419    63.36   .       .       164     195     13.96
2420    63.38   .       .       169     185     13.60
2421    63.40   .       .       150     176     13.27
2422    63.42   .       .       135     169     13.00
2423    63.44   .       .       141     162     12.73
2424    63.46   .       .       129     158     12.57
2425    63.48   .       .       146     154     12.41
2426    63.50   .       .       145     152     12.33
2427    63.52   .       .       117     150     12.25
2428    63.54   .       .       132     149     12.21
2429    63.56   .       .       121     148     12.17
2430    63.58   .       .       111     148     12.17
2431    63.60   .       .       155     149     12.21
2432    63.62   .       .       123     150     12.25
2433    63.64   .       .       152     152     12.33
2434    63.66   .       .       145     154     12.41
2435    63.68   .       .       141     157     12.53
2436    63.70   .       .       172     160     12.65
2437    63.72   .       .       159     165     12.85
2438    63.74   .       .       142     170     13.04
2439    63.76   .       .       128     176     13.27
2440    63.78   .       .       181     183     13.53
2441    63.80   .       .       199     192     13.86
2442    63.82   .       .       180     203     14.25
2443    63.84   .       .       203     216     14.70
2444    63.86   .       .       223     232     15.23
2445    63.88   .       .       230     251     15.84
2446    63.90   .       .       267     274     16.55
2447    63.92   .       .       317     302     17.38
2448    63.94   .       .       323     335     18.30
2449    63.96   .       .       351     374     19.34
2450    63.98   .       .       387     415     20.37
2451    64.00   .       .       390     457     21.38
2452    64.02   .       .       503     491     22.16
2453    64.04   .       .       482     514     22.67
2454    64.06   .       .       516     521     22.83
2455    64.08   .       .       493     516     22.72
2456    64.10   .       .       521     503     22.43
2457    64.12   .       .       487     490     22.14
2458    64.14   .       .       487     482     21.95
2459    64.16   .       .       506     480     21.91
2460    64.18   .       .       469     484     22.00
2461    64.20   .       .       486     490     22.14
2462    64.22   .       .       501     496     22.27
2463    64.24   .       .       496     502     22.41
2464    64.26   .       .       543     507     22.52
2465    64.28   .       .       555     518     22.76
2466    64.30   .       .       574     536     23.15
2467    64.32   .       .       646     566     23.79
2468    64.34   .       .       644     608     24.66
2469    64.36   .       .       659     659     25.67
2470    64.38   .       .       692     714     26.72
2471    64.40   .       .       703     763     27.62
2472    64.42   .       .       756     797     28.23
2473    64.44   .       .       801     816     28.57
2474    64.46   .       .       835     824     28.71
2475    64.48   .       .       773     826     28.74
2476    64.50   .       .       788     820     28.64
2477    64.52   .       .       738     804     28.35
2478    64.54   .       .       709     778     27.89
2479    64.56   .       .       704     744     27.28
2480    64.58   .       .       730     707     26.59
2481    64.60   .       .       657     668     25.85
2482    64.62   .       .       563     628     25.06
2483    64.64   .       .       549     589     24.27
2484    64.66   .       .       509     551     23.47
2485    64.68   .       .       463     512     22.63
2486    64.70   .       .       426     471     21.70
2487    64.72   .       .       387     426     20.64
2488    64.74   .       .       341     382     19.54
2489    64.76   .       .       294     341     18.47
2490    64.78   .       .       293     305     17.46
2491    64.80   .       .       256     276     16.61
2492    64.82   .       .       239     251     15.84
2493    64.84   .       .       211     230     15.17
2494    64.86   .       .       212     213     14.59
2495    64.88   .       .       185     199     14.11
2496    64.90   .       .       163     187     13.67
2497    64.92   .       .       166     177     13.30
2498    64.94   .       .       143     169     13.00
2499    64.96   .       .       165     161     12.69
2500    64.98   .       .       111     155     12.45
2501    65.00   .       .       104     150     12.25
2502    65.02   .       .       130     145     12.04
2503    65.04   .       .       142     141     11.87
2504    65.06   .       .       128     137     11.70
2505    65.08   .       .       111     134     11.58
2506    65.10   .       .       120     131     11.45
2507    65.12   .       .       119     129     11.36
2508    65.14   .       .       139     127     11.27
2509    65.16   .       .       114     124     11.14
2510    65.18   .       .       132     123     11.09
2511    65.20   .       .       132     121     11.00
2512    65.22   .       .       132     119     10.91
2513    65.24   .       .       140     118     10.86
2514    65.26   .       .       111     117     10.82
2515    65.28   .       .       126     116     10.77
2516    65.30   .       .       115     115     10.72
2517    65.32   .       .       121     114     10.68
2518    65.34   .       .       145     113     10.63
2519    65.36   .       .       124     112     10.58
2520    65.38   .       .       137     111     10.54
2521    65.40   .       .       138     111     10.54
2522    65.42   .       .       153     110     10.49
2523    65.44   .       .       162     109     10.44
2524    65.46   .       .       145     109     10.44
2525    65.48   .       .       189     107     10.34
2526    65.50   .       .       215     106     10.30
2527    65.52   .       .       175     106     10.30
2528    65.54   .       .       170     105     10.25
2529    65.56   .       .       158     105     10.25
2530    65.58   .       .       157     105     10.25
2531    65.60   .       .       142     104     10.20
2532    65.62   .       .       118     104     10.20
2533    65.64   .       .       139     104     10.20
2534    65.66   .       .       150     103     10.15
2535    65.68   .       .       124     102     10.10
2536    65.70   .       .       130     102     10.10
2537    65.72   .       .       125     102     10.10
2538    65.74   .       .       134     102     10.10
2539    65.76   .       .       116     102     10.10
2540    65.78   .       .       107     101     10.05
2541    65.80   .       .       91      100     10.00
2542    65.82   .       .       97      100     10.00
2543    65.84   .       .       106     98      9.90
2544    65.86   .       .       91      98      9.90
2545    65.88   .       .       103     98      9.90
2546    65.90   .       .       90      98      9.90
2547    65.92   .       .       112     98      9.90
2548    65.94   .       .       111     99      9.95
2549    65.96   .       .       83      99      9.95
2550    65.98   .       .       98      99      9.95
2551    66.00   .       .       88      98      9.90
2552    66.02   .       .       95      98      9.90
2553    66.04   .       .       100     98      9.90
2554    66.06   .       .       95      98      9.90
2555    66.08   .       .       95      98      9.90
2556    66.10   .       .       94      99      9.95
2557    66.12   .       .       87      99      9.95
2558    66.14   .       .       103     99      9.95
2559    66.16   .       .       97      100     10.00
2560    66.18   .       .       88      100     10.00
2561    66.20   .       .       105     101     10.05
2562    66.22   .       .       87      101     10.05
2563    66.24   .       .       85      102     10.10
2564    66.26   .       .       85      103     10.15
2565    66.28   .       .       108     104     10.20
2566    66.30   .       .       113     105     10.25
2567    66.32   .       .       110     106     10.30
2568    66.34   .       .       103     108     10.39
2569    66.36   .       .       93      109     10.44
2570    66.38   .       .       101     111     10.54
2571    66.40   .       .       126     114     10.68
2572    66.42   .       .       133     116     10.77
2573    66.44   .       .       131     120     10.95
2574    66.46   .       .       159     124     11.14
2575    66.48   .       .       135     129     11.36
2576    66.50   .       .       158     135     11.62
2577    66.52   .       .       173     142     11.92
2578    66.54   .       .       185     151     12.29
2579    66.56   .       .       203     162     12.73
2580    66.58   .       .       191     174     13.19
2581    66.60   .       .       231     187     13.67
2582    66.62   .       .       252     200     14.14
2583    66.64   .       .       259     210     14.49
2584    66.66   .       .       266     216     14.70
2585    66.68   .       .       248     216     14.70
2586    66.70   .       .       216     211     14.53
2587    66.72   .       .       213     205     14.32
2588    66.74   .       .       231     198     14.07
2589    66.76   .       .       215     192     13.86
2590    66.78   .       .       200     188     13.71
2591    66.80   .       .       211     185     13.60
2592    66.82   .       .       170     183     13.53
2593    66.84   .       .       189     180     13.42
2594    66.86   .       .       175     175     13.23
2595    66.88   .       .       160     169     13.00
2596    66.90   .       .       146     161     12.69
2597    66.92   .       .       142     153     12.37
2598    66.94   .       .       136     146     12.08
2599    66.96   .       .       131     140     11.83
2600    66.98   .       .       125     135     11.62
2601    67.00   .       .       114     131     11.45
2602    67.02   .       .       106     128     11.31
2603    67.04   .       .       120     126     11.22
2604    67.06   .       .       130     125     11.18
2605    67.08   .       .       103     125     11.18
2606    67.10   .       .       117     125     11.18
2607    67.12   .       .       115     126     11.22
2608    67.14   .       .       110     128     11.31
2609    67.16   .       .       105     131     11.45
2610    67.18   .       .       131     134     11.58
2611    67.20   .       .       129     138     11.75
2612    67.22   .       .       121     141     11.87
2613    67.24   .       .       128     145     12.04
2614    67.26   .       .       142     146     12.08
2615    67.28   .       .       134     146     12.08
2616    67.30   .       .       126     144     12.00
2617    67.32   .       .       145     141     11.87
2618    67.34   .       .       135     138     11.75
2619    67.36   .       .       113     135     11.62
2620    67.38   .       .       135     133     11.53
2621    67.40   .       .       130     132     11.49
2622    67.42   .       .       131     131     11.45
2623    67.44   .       .       106     130     11.40
2624    67.46   .       .       115     128     11.31
2625    67.48   .       .       120     126     11.22
2626    67.50   .       .       98      123     11.09
2627    67.52   .       .       110     120     10.95
2628    67.54   .       .       119     117     10.82
2629    67.56   .       .       87      115     10.72
2630    67.58   .       .       84      113     10.63
2631    67.60   .       .       124     111     10.54
2632    67.62   .       .       94      110     10.49
2633    67.64   .       .       109     109     10.44
2634    67.66   .       .       93      109     10.44
2635    67.68   .       .       100     109     10.44
2636    67.70   .       .       91      109     10.44
2637    67.72   .       .       88      110     10.49
2638    67.74   .       .       98      111     10.54
2639    67.76   .       .       105     112     10.58
2640    67.78   .       .       89      114     10.68
2641    67.80   .       .       85      116     10.77
2642    67.82   .       .       112     119     10.91
2643    67.84   .       .       108     122     11.05
2644    67.86   .       .       113     126     11.22
2645    67.88   .       .       112     131     11.45
2646    67.90   .       .       118     138     11.75
2647    67.92   .       .       130     145     12.04
2648    67.94   .       .       132     153     12.37
2649    67.96   .       .       155     162     12.73
2650    67.98   .       .       136     170     13.04
2651    68.00   .       .       141     176     13.27
2652    68.02   .       .       164     180     13.42
2653    68.04   .       .       168     180     13.42
2654    68.06   .       .       145     177     13.30
2655    68.08   .       .       160     173     13.15
2656    68.10   .       .       165     168     12.96
2657    68.12   .       .       135     164     12.81
2658    68.14   .       .       143     161     12.69
2659    68.16   .       .       141     159     12.61
2660    68.18   .       .       120     158     12.57
2661    68.20   .       .       146     156     12.49
2662    68.22   .       .       124     154     12.41
2663    68.24   .       .       120     150     12.25
2664    68.26   .       .       145     146     12.08
2665    68.28   .       .       126     141     11.87
2666    68.30   .       .       111     137     11.70
2667    68.32   .       .       108     133     11.53
2668    68.34   .       .       123     130     11.40
2669    68.36   .       .       109     127     11.27
2670    68.38   .       .       94      125     11.18
2671    68.40   .       .       100     122     11.05
2672    68.42   .       .       106     119     10.91
2673    68.44   .       .       108     117     10.82
2674    68.46   .       .       101     114     10.68
2675    68.48   .       .       116     112     10.58
2676    68.50   .       .       91      111     10.54
2677    68.52   .       .       106     109     10.44
2678    68.54   .       .       104     108     10.39
2679    68.56   .       .       102     107     10.34
2680    68.58   .       .       108     106     10.30
2681    68.60   .       .       92      104     10.20
2682    68.62   .       .       89      103     10.15
2683    68.64   .       .       103     101     10.05
2684    68.66   .       .       68      102     10.10
2685    68.68   .       .       101     101     10.05
2686    68.70   .       .       74      100     10.00
2687    68.72   .       .       98      99      9.95
2688    68.74   .       .       100     98      9.90
2689    68.76   .       .       104     97      9.85
2690    68.78   .       .       88      97      9.85
2691    68.80   .       .       81      96      9.80
2692    68.82   .       .       75      96      9.80
2693    68.84   .       .       89      95      9.75
2694    68.86   .       .       72      96      9.80
2695    68.88   .       .       93      96      9.80
2696    68.90   .       .       81      96      9.80
2697    68.92   .       .       88      95      9.75
2698    68.94   .       .       86      95      9.75
2699    68.96   .       .       96      95      9.75
2700    68.98   .       .       87      95      9.75
2701    69.00   .       .       102     95      9.75
2702    69.02   .       .       87      95      9.75
2703    69.04   .       .       92      95      9.75
2704    69.06   .       .       87      95      9.75
2705    69.08   .       .       93      95      9.75
2706    69.10   .       .       106     95      9.75
2707    69.12   .       .       84      95      9.75
2708    69.14   .       .       101     95      9.75
2709    69.16   .       .       100     96      9.80
2710    69.18   .       .       95      96      9.80
2711    69.20   .       .       104     96      9.80
2712    69.22   .       .       104     96      9.80
2713    69.24   .       .       139     96      9.80
2714    69.26   .       .       102     96      9.80
2715    69.28   .       .       126     97      9.85
2716    69.30   .       .       144     97      9.85
2717    69.32   .       .       147     97      9.85
2718    69.34   .       .       132     98      9.90
2719    69.36   .       .       121     98      9.90
2720    69.38   .       .       117     98      9.90
2721    69.40   .       .       99      99      9.95
2722    69.42   .       .       126     103     10.15
2723    69.44   .       .       107     104     10.20
2724    69.46   .       .       108     104     10.20
2725    69.48   .       .       125     105     10.25
2726    69.50   .       .       125     110     10.49
2727    69.52   .       .       118     111     10.54
2728    69.54   .       .       105     112     10.58
2729    69.56   .       .       121     113     10.63
2730    69.58   .       .       114     114     10.68
2731    69.60   .       .       131     116     10.77
2732    69.62   .       .       106     119     10.91
2733    69.64   .       .       89      121     11.00
2734    69.66   .       .       105     123     11.09
2735    69.68   .       .       153     127     11.27
2736    69.70   .       .       130     130     11.40
2737    69.72   .       .       144     132     11.49
2738    69.74   .       .       138     135     11.62
2739    69.76   .       .       148     139     11.79
2740    69.78   .       .       144     143     11.96
2741    69.80   .       .       130     147     12.12
2742    69.82   .       .       140     152     12.33
2743    69.84   .       .       143     158     12.57
2744    69.86   .       .       162     165     12.85
2745    69.88   .       .       168     174     13.19
2746    69.90   .       .       203     183     13.53
2747    69.92   .       .       193     194     13.93
2748    69.94   .       .       241     207     14.39
2749    69.96   .       .       223     222     14.90
2750    69.98   .       .       222     240     15.49
2751    70.00   .       .       253     261     16.16
2752    70.02   .       .       282     287     16.94
2753    70.04   .       .       326     317     17.80
2754    70.06   .       .       358     351     18.73
2755    70.08   .       .       392     390     19.75
2756    70.10   .       .       445     430     20.74
2757    70.12   .       .       453     468     21.63
2758    70.14   .       .       493     497     22.29
2759    70.16   .       .       484     514     22.67
2760    70.18   .       .       515     516     22.72
2761    70.20   .       .       523     505     22.47
2762    70.22   .       .       554     488     22.09
2763    70.24   .       .       453     470     21.68
2764    70.26   .       .       452     456     21.35
2765    70.28   .       .       407     446     21.12
2766    70.30   .       .       403     441     21.00
2767    70.32   .       .       431     439     20.95
2768    70.34   .       .       419     437     20.90
2769    70.36   .       .       361     431     20.76
2770    70.38   .       .       376     421     20.52
2771    70.40   .       .       410     406     20.15
2772    70.42   .       .       386     390     19.75
2773    70.44   .       .       356     376     19.39
2774    70.46   .       .       396     364     19.08
2775    70.48   .       .       359     356     18.87
2776    70.50   .       .       350     353     18.79
2777    70.52   .       .       329     355     18.84
2778    70.54   .       .       346     362     19.03
2779    70.56   .       .       367     375     19.36
2780    70.58   .       .       414     393     19.82
2781    70.60   .       .       443     417     20.42
2782    70.62   .       .       441     448     21.17
2783    70.64   .       .       522     488     22.09
2784    70.66   .       .       593     538     23.19
2785    70.68   .       .       620     600     24.49
2786    70.70   .       .       705     677     26.02
2787    70.72   .       .       843     770     27.75
2788    70.74   .       .       903     881     29.68
2789    70.76   .       .       1030    1008    31.75
2790    70.78   .       .       1119    1147    33.87
2791    70.80   .       .       1333    1285    35.85
2792    70.82   .       .       1433    1408    37.52
2793    70.84   .       .       1457    1501    38.74
2794    70.86   .       .       1624    1554    39.42
2795    70.88   .       .       1689    1565    39.56
2796    70.90   .       .       1705    1537    39.20
2797    70.92   .       .       1569    1480    38.47
2798    70.94   .       .       1476    1410    37.55
2799    70.96   .       .       1358    1343    36.65
2800    70.98   .       .       1299    1287    35.87
2801    71.00   .       .       1170    1246    35.30
2802    71.02   .       .       1168    1212    34.81
2803    71.04   .       .       1158    1179    34.34
2804    71.06   .       .       1078    1138    33.73
2805    71.08   .       .       1071    1086    32.95
2806    71.10   .       .       981     1023    31.98
2807    71.12   .       .       957     951     30.84
2808    71.14   .       .       850     877     29.61
2809    71.16   .       .       789     807     28.41
2810    71.18   .       .       724     748     27.35
2811    71.20   .       .       682     702     26.50
2812    71.22   .       .       616     669     25.87
2813    71.24   .       .       603     646     25.42
2814    71.26   .       .       565     628     25.06
2815    71.28   .       .       561     609     24.68
2816    71.30   .       .       568     584     24.17
2817    71.32   .       .       518     555     23.56
2818    71.34   .       .       506     523     22.87
2819    71.36   .       .       570     492     22.18
2820    71.38   .       .       449     466     21.59
2821    71.40   .       .       437     446     21.12
2822    71.42   .       .       379     430     20.74
2823    71.44   .       .       419     418     20.45
2824    71.46   .       .       360     406     20.15
2825    71.48   .       .       373     393     19.82
2826    71.50   .       .       361     375     19.36
2827    71.52   .       .       349     354     18.81
2828    71.54   .       .       327     330     18.17
2829    71.56   .       .       299     307     17.52
2830    71.58   .       .       271     285     16.88
2831    71.60   .       .       254     266     16.31
2832    71.62   .       .       230     249     15.78
2833    71.64   .       .       222     234     15.30
2834    71.66   .       .       218     221     14.87
2835    71.68   .       .       171     208     14.42
2836    71.70   .       .       177     196     14.00
2837    71.72   .       .       154     186     13.64
2838    71.74   .       .       164     177     13.30
2839    71.76   .       .       131     169     13.00
2840    71.78   .       .       145     162     12.73
2841    71.80   .       .       132     157     12.53
2842    71.82   .       .       138     152     12.33
2843    71.84   .       .       127     147     12.12
2844    71.86   .       .       134     144     12.00
2845    71.88   .       .       118     141     11.87
2846    71.90   .       .       117     137     11.70
2847    71.92   .       .       127     135     11.62
2848    71.94   .       .       125     133     11.53
2849    71.96   .       .       121     132     11.49
2850    71.98   .       .       128     131     11.45
2851    72.00   .       .       116     130     11.40
2852    72.02   .       .       113     130     11.40
2853    72.04   .       .       99      129     11.36
2854    72.06   .       .       114     128     11.31
2855    72.08   .       .       122     127     11.27
2856    72.10   .       .       122     126     11.22
2857    72.12   .       .       123     124     11.14
2858    72.14   .       .       116     123     11.09
2859    72.16   .       .       127     121     11.00
2860    72.18   .       .       106     120     10.95
2861    72.20   .       .       108     120     10.95
2862    72.22   .       .       120     119     10.91
2863    72.24   .       .       121     119     10.91
2864    72.26   .       .       104     119     10.91
2865    72.28   .       .       114     115     10.72
2866    72.30   .       .       134     115     10.72
2867    72.32   .       .       114     115     10.72
2868    72.34   .       .       106     111     10.54
2869    72.36   .       .       113     111     10.54
2870    72.38   .       .       113     112     10.58
2871    72.40   .       .       121     114     10.68
2872    72.42   .       .       119     115     10.72
2873    72.44   .       .       113     117     10.82
2874    72.46   .       .       131     119     10.91
2875    72.48   .       .       139     120     10.95
2876    72.50   .       .       146     123     11.09
2877    72.52   .       .       116     127     11.27
2878    72.54   .       .       134     133     11.53
2879    72.56   .       .       132     137     11.70
2880    72.58   .       .       134     145     12.04
2881    72.60   .       .       174     154     12.41
2882    72.62   .       .       160     164     12.81
2883    72.64   .       .       178     176     13.27
2884    72.66   .       .       206     188     13.71
2885    72.68   .       .       209     199     14.11
2886    72.70   .       .       192     209     14.46
2887    72.72   .       .       225     215     14.66
2888    72.74   .       .       206     215     14.66
2889    72.76   .       .       228     212     14.56
2890    72.78   .       .       219     206     14.35
2891    72.80   .       .       214     200     14.14
2892    72.82   .       .       227     193     13.89
2893    72.84   .       .       191     188     13.71
2894    72.86   .       .       179     184     13.56
2895    72.88   .       .       166     183     13.53
2896    72.90   .       .       156     181     13.45
2897    72.92   .       .       164     179     13.38
2898    72.94   .       .       190     175     13.23
2899    72.96   .       .       164     170     13.04
2900    72.98   .       .       173     163     12.77
2901    73.00   .       .       127     155     12.45
2902    73.02   .       .       152     147     12.12
2903    73.04   .       .       162     142     11.92
2904    73.06   .       .       134     136     11.66
2905    73.08   .       .       144     131     11.45
2906    73.10   .       .       148     127     11.27
2907    73.12   .       .       136     123     11.09
2908    73.14   .       .       131     120     10.95
2909    73.16   .       .       124     117     10.82
2910    73.18   .       .       135     115     10.72
2911    73.20   .       .       124     113     10.63
2912    73.22   .       .       136     112     10.58
2913    73.24   .       .       116     111     10.54
2914    73.26   .       .       108     112     10.58
2915    73.28   .       .       116     111     10.54
2916    73.30   .       .       112     111     10.54
2917    73.32   .       .       112     111     10.54
2918    73.34   .       .       123     111     10.54
2919    73.36   .       .       116     112     10.58
2920    73.38   .       .       120     112     10.58
2921    73.40   .       .       116     113     10.63
2922    73.42   .       .       132     114     10.68
2923    73.44   .       .       106     115     10.72
2924    73.46   .       .       115     117     10.82
2925    73.48   .       .       111     120     10.95
2926    73.50   .       .       106     123     11.09
2927    73.52   .       .       145     126     11.22
2928    73.54   .       .       123     129     11.36
2929    73.56   .       .       123     133     11.53
2930    73.58   .       .       133     138     11.75
2931    73.60   .       .       159     144     12.00
2932    73.62   .       .       156     151     12.29
2933    73.64   .       .       187     159     12.61
2934    73.66   .       .       186     168     12.96
2935    73.68   .       .       187     179     13.38
2936    73.70   .       .       193     191     13.82
2937    73.72   .       .       191     204     14.28
2938    73.74   .       .       187     215     14.66
2939    73.76   .       .       213     224     14.97
2940    73.78   .       .       202     230     15.17
2941    73.80   .       .       241     233     15.26
2942    73.82   .       .       253     234     15.30
2943    73.84   .       .       247     235     15.33
2944    73.86   .       .       225     238     15.43
2945    73.88   .       .       233     243     15.59
2946    73.90   .       .       243     251     15.84
2947    73.92   .       .       289     260     16.12
2948    73.94   .       .       258     270     16.43
2949    73.96   .       .       299     278     16.67
2950    73.98   .       .       294     282     16.79
2951    74.00   .       .       283     282     16.79
2952    74.02   .       .       303     278     16.67
2953    74.04   .       .       274     271     16.46
2954    74.06   .       .       275     264     16.25
2955    74.08   .       .       258     258     16.06
2956    74.10   .       .       247     253     15.91
2957    74.12   .       .       279     251     15.84
2958    74.14   .       .       257     252     15.87
2959    74.16   .       .       284     255     15.97
2960    74.18   .       .       258     258     16.06
2961    74.20   .       .       263     263     16.22
2962    74.22   .       .       283     268     16.37
2963    74.24   .       .       306     275     16.58
2964    74.26   .       .       326     283     16.82
2965    74.28   .       .       278     294     17.15
2966    74.30   .       .       321     309     17.58
2967    74.32   .       .       328     327     18.08
2968    74.34   .       .       386     349     18.68
2969    74.36   .       .       385     375     19.36
2970    74.38   .       .       388     403     20.07
2971    74.40   .       .       460     431     20.76
2972    74.42   .       .       478     457     21.38
2973    74.44   .       .       501     481     21.93
2974    74.46   .       .       550     504     22.45
2975    74.48   .       .       524     529     23.00
2976    74.50   .       .       530     557     23.60
2977    74.52   .       .       617     591     24.31
2978    74.54   .       .       627     628     25.06
2979    74.56   .       .       672     663     25.75
2980    74.58   .       .       673     692     26.31
2981    74.60   .       .       700     710     26.65
2982    74.62   .       .       745     718     26.80
2983    74.64   .       .       795     720     26.83
2984    74.66   .       .       803     721     26.85
2985    74.68   .       .       761     727     26.96
2986    74.70   .       .       794     741     27.22
2987    74.72   .       .       754     762     27.60
2988    74.74   .       .       799     785     28.02
2989    74.76   .       .       795     803     28.34
2990    74.78   .       .       775     808     28.43
2991    74.80   .       .       752     795     28.20
2992    74.82   .       .       729     766     27.68
2993    74.84   .       .       732     728     26.98
2994    74.86   .       .       702     689     26.25
2995    74.88   .       .       672     655     25.59
2996    74.90   .       .       668     631     25.12
2997    74.92   .       .       595     618     24.86
2998    74.94   .       .       594     613     24.76
2999    74.96   .       .       567     611     24.72
3000    74.98   .       .       549     606     24.62
3001    75.00   .       .       549     593     24.35
3002    75.02   .       .       514     569     23.85
3003    75.04   .       .       499     535     23.13
3004    75.06   .       .       482     495     22.25
3005    75.08   .       .       448     456     21.35
3006    75.10   .       .       423     419     20.47
3007    75.12   .       .       366     389     19.72
3008    75.14   .       .       342     364     19.08
3009    75.16   .       .       324     344     18.55
3010    75.18   .       .       307     329     18.14
3011    75.20   .       .       270     315     17.75
3012    75.22   .       .       268     302     17.38
3013    75.24   .       .       257     288     16.97
3014    75.26   .       .       272     272     16.49
3015    75.28   .       .       236     256     16.00
3016    75.30   .       .       208     240     15.49
3017    75.32   .       .       181     226     15.03
3018    75.34   .       .       213     214     14.63
3019    75.36   .       .       208     205     14.32
3020    75.38   .       .       198     197     14.04
3021    75.40   .       .       181     191     13.82
3022    75.42   .       .       166     188     13.71
3023    75.44   .       .       179     186     13.64
3024    75.46   .       .       167     186     13.64
3025    75.48   .       .       175     187     13.67
3026    75.50   .       .       180     190     13.78
3027    75.52   .       .       198     194     13.93
3028    75.54   .       .       174     199     14.11
3029    75.56   .       .       201     203     14.25
3030    75.58   .       .       179     205     14.32
3031    75.60   .       .       183     205     14.32
3032    75.62   .       .       185     202     14.21
3033    75.64   .       .       185     197     14.04
3034    75.66   .       .       190     191     13.82
3035    75.68   .       .       174     186     13.64
3036    75.70   .       .       167     181     13.45
3037    75.72   .       .       161     177     13.30
3038    75.74   .       .       171     174     13.19
3039    75.76   .       .       159     172     13.11
3040    75.78   .       .       164     170     13.04
3041    75.80   .       .       163     167     12.92
3042    75.82   .       .       152     164     12.81
3043    75.84   .       .       160     159     12.61
3044    75.86   .       .       177     153     12.37
3045    75.88   .       .       127     148     12.17
3046    75.90   .       .       140     143     11.96
3047    75.92   .       .       122     138     11.75
3048    75.94   .       .       113     134     11.58
3049    75.96   .       .       146     131     11.45
3050    75.98   .       .       115     128     11.31
3051    76.00   .       .       146     126     11.22
3052    76.02   .       .       110     123     11.09
3053    76.04   .       .       105     122     11.05
3054    76.06   .       .       112     121     11.00
3055    76.08   .       .       127     119     10.91
3056    76.10   .       .       111     119     10.91
3057    76.12   .       .       104     119     10.91
3058    76.14   .       .       115     120     10.95
3059    76.16   .       .       121     122     11.05
3060    76.18   .       .       116     124     11.14
3061    76.20   .       .       115     126     11.22
3062    76.22   .       .       104     129     11.36
3063    76.24   .       .       107     131     11.45
3064    76.26   .       .       127     132     11.49
3065    76.28   .       .       120     133     11.53
3066    76.30   .       .       130     133     11.53
3067    76.32   .       .       122     132     11.49
3068    76.34   .       .       113     128     11.31
3069    76.36   .       .       118     125     11.18
3070    76.38   .       .       95      123     11.09
3071    76.40   .       .       103     120     10.95
3072    76.42   .       .       103     118     10.86
3073    76.44   .       .       113     117     10.82
3074    76.46   .       .       126     115     10.72
3075    76.48   .       .       109     114     10.68
3076    76.50   .       .       96      113     10.63
3077    76.52   .       .       102     111     10.54
3078    76.54   .       .       105     109     10.44
3079    76.56   .       .       81      106     10.30
3080    76.58   .       .       102     103     10.15
3081    76.60   .       .       106     101     10.05
3082    76.62   .       .       99      99      9.95
3083    76.64   .       .       83      97      9.85
3084    76.66   .       .       95      95      9.75
3085    76.68   .       .       80      94      9.70
3086    76.70   .       .       88      93      9.64
3087    76.72   .       .       89      93      9.64
3088    76.74   .       .       86      93      9.64
3089    76.76   .       .       85      93      9.64
3090    76.78   .       .       88      93      9.64
3091    76.80   .       .       76      93      9.64
3092    76.82   .       .       100     94      9.70
3093    76.84   .       .       88      95      9.75
3094    76.86   .       .       97      97      9.85
3095    76.88   .       .       105     99      9.95
3096    76.90   .       .       93      101     10.05
3097    76.92   .       .       118     103     10.15
3098    76.94   .       .       117     105     10.25
3099    76.96   .       .       105     107     10.34
3100    76.98   .       .       107     108     10.39
3101    77.00   .       .       131     108     10.39
3102    77.02   .       .       93      108     10.39
3103    77.04   .       .       93      106     10.30
3104    77.06   .       .       100     105     10.25
3105    77.08   .       .       110     103     10.15
3106    77.10   .       .       97      102     10.10
3107    77.12   .       .       101     101     10.05
3108    77.14   .       .       100     101     10.05
3109    77.16   .       .       103     101     10.05
3110    77.18   .       .       92      101     10.05
3111    77.20   .       .       92      100     10.00
3112    77.22   .       .       101     100     10.00
3113    77.24   .       .       97      99      9.95
3114    77.26   .       .       86      98      9.90
3115    77.28   .       .       84      97      9.85
3116    77.30   .       .       102     95      9.75
3117    77.32   .       .       91      95      9.75
3118    77.34   .       .       103     94      9.70
3119    77.36   .       .       92      94      9.70
3120    77.38   .       .       83      94      9.70
3121    77.40   .       .       101     93      9.64
3122    77.42   .       .       94      94      9.70
3123    77.44   .       .       99      95      9.75
3124    77.46   .       .       89      96      9.80
3125    77.48   .       .       93      97      9.85
3126    77.50   .       .       94      99      9.95
3127    77.52   .       .       120     102     10.10
3128    77.54   .       .       99      105     10.25
3129    77.56   .       .       105     108     10.39
3130    77.58   .       .       118     113     10.63
3131    77.60   .       .       131     118     10.86
3132    77.62   .       .       128     123     11.09
3133    77.64   .       .       135     130     11.40
3134    77.66   .       .       127     136     11.66
3135    77.68   .       .       135     142     11.92
3136    77.70   .       .       155     147     12.12
3137    77.72   .       .       151     150     12.25
3138    77.74   .       .       170     150     12.25
3139    77.76   .       .       148     149     12.21
3140    77.78   .       .       126     146     12.08
3141    77.80   .       .       154     142     11.92
3142    77.82   .       .       140     138     11.75
3143    77.84   .       .       118     135     11.62
3144    77.86   .       .       139     133     11.53
3145    77.88   .       .       135     131     11.45
3146    77.90   .       .       111     130     11.40
3147    77.92   .       .       130     129     11.36
3148    77.94   .       .       127     128     11.31
3149    77.96   .       .       154     126     11.22
3150    77.98   .       .       128     123     11.09
3151    78.00   .       .       134     119     10.91
3152    78.02   .       .       136     115     10.72
3153    78.04   .       .       131     111     10.54
3154    78.06   .       .       123     108     10.39
3155    78.08   .       .       113     104     10.20
3156    78.10   .       .       112     101     10.05
3157    78.12   .       .       89      99      9.95
3158    78.14   .       .       117     97      9.85
3159    78.16   .       .       95      95      9.75
3160    78.18   .       .       115     94      9.70
3161    78.20   .       .       96      93      9.64
3162    78.22   .       .       83      92      9.59
3163    78.24   .       .       111     92      9.59
3164    78.26   .       .       124     91      9.54
3165    78.28   .       .       98      91      9.54
3166    78.30   .       .       85      91      9.54
3167    78.32   .       .       97      92      9.59
3168    78.34   .       .       105     92      9.59
3169    78.36   .       .       80      93      9.64
3170    78.38   .       .       90      94      9.70
3171    78.40   .       .       108     95      9.75
3172    78.42   .       .       81      97      9.85
3173    78.44   .       .       107     98      9.90
3174    78.46   .       .       104     101     10.05
3175    78.48   .       .       100     104     10.20
3176    78.50   .       .       95      107     10.34
3177    78.52   .       .       124     111     10.54
3178    78.54   .       .       108     116     10.77
3179    78.56   .       .       130     122     11.05
3180    78.58   .       .       105     129     11.36
3181    78.60   .       .       128     137     11.70
3182    78.62   .       .       165     147     12.12
3183    78.64   .       .       150     157     12.53
3184    78.66   .       .       179     168     12.96
3185    78.68   .       .       165     178     13.34
3186    78.70   .       .       182     187     13.67
3187    78.72   .       .       194     192     13.86
3188    78.74   .       .       192     195     13.96
3189    78.76   .       .       232     194     13.93
3190    78.78   .       .       222     190     13.78
3191    78.80   .       .       200     185     13.60
3192    78.82   .       .       178     179     13.38
3193    78.84   .       .       186     173     13.15
3194    78.86   .       .       170     169     13.00
3195    78.88   .       .       170     165     12.85
3196    78.90   .       .       164     163     12.77
3197    78.92   .       .       131     161     12.69
3198    78.94   .       .       164     159     12.61
3199    78.96   .       .       162     156     12.49
3200    78.98   .       .       162     152     12.33
3201    79.00   .       .       140     147     12.12
3202    79.02   .       .       160     141     11.87
3203    79.04   .       .       128     134     11.58
3204    79.06   .       .       146     127     11.27
3205    79.08   .       .       123     121     11.00
3206    79.10   .       .       109     115     10.72
3207    79.12   .       .       113     110     10.49
3208    79.14   .       .       102     106     10.30
3209    79.16   .       .       105     102     10.10
3210    79.18   .       .       119     99      9.95
3211    79.20   .       .       101     96      9.80
3212    79.22   .       .       99      94      9.70
3213    79.24   .       .       82      93      9.64
3214    79.26   .       .       97      91      9.54
3215    79.28   .       .       86      90      9.49
3216    79.30   .       .       103     88      9.38
3217    79.32   .       .       91      87      9.33
3218    79.34   .       .       76      86      9.27
3219    79.36   .       .       75      86      9.27
3220    79.38   .       .       87      86      9.27
3221    79.40   .       .       84      85      9.22
3222    79.42   .       .       91      84      9.17
3223    79.44   .       .       100     84      9.17
3224    79.46   .       .       84      84      9.17
3225    79.48   .       .       81      84      9.17
3226    79.50   .       .       79      83      9.11
3227    79.52   .       .       75      83      9.11
3228    79.54   .       .       83      83      9.11
3229    79.56   .       .       80      83      9.11
3230    79.58   .       .       78      83      9.11
3231    79.60   .       .       97      84      9.17
3232    79.62   .       .       73      84      9.17
3233    79.64   .       .       102     84      9.17
3234    79.66   .       .       76      84      9.17
3235    79.68   .       .       109     85      9.22
3236    79.70   .       .       92      85      9.22
3237    79.72   .       .       89      86      9.27
3238    79.74   .       .       79      86      9.27
3239    79.76   .       .       87      87      9.33
3240    79.78   .       .       82      87      9.33
3241    79.80   .       .       90      88      9.38
3242    79.82   .       .       98      89      9.43
3243    79.84   .       .       78      90      9.49
3244    79.86   .       .       98      91      9.54
3245    79.88   .       .       110     93      9.64
3246    79.90   .       .       103     94      9.70
3247    79.92   .       .       73      96      9.80
3248    79.94   .       .       99      98      9.90
3249    79.96   .       .       115     100     10.00
3250    79.98   .       .       102     103     10.15
3251    80.00   .       .       100     106     10.30
3252    80.02   .       .       114     110     10.49
3253    80.04   .       .       93      114     10.68
3254    80.06   .       .       100     119     10.91
3255    80.08   .       .       123     125     11.18
3256    80.10   .       .       140     131     11.45
3257    80.12   .       .       146     139     11.79
3258    80.14   .       .       146     147     12.12
3259    80.16   .       .       150     156     12.49
3260    80.18   .       .       131     164     12.81
3261    80.20   .       .       143     172     13.11
3262    80.22   .       .       154     178     13.34
3263    80.24   .       .       184     182     13.49
3264    80.26   .       .       164     183     13.53
3265    80.28   .       .       168     182     13.49
3266    80.30   .       .       174     180     13.42
3267    80.32   .       .       180     177     13.30
3268    80.34   .       .       176     174     13.19
3269    80.36   .       .       174     172     13.11
3270    80.38   .       .       164     172     13.11
3271    80.40   .       .       162     174     13.19
3272    80.42   .       .       170     176     13.27
3273    80.44   .       .       164     179     13.38
3274    80.46   .       .       169     182     13.49
3275    80.48   .       .       173     185     13.60
3276    80.50   .       .       157     188     13.71
3277    80.52   .       .       187     191     13.82
3278    80.54   .       .       207     195     13.96
3279    80.56   .       .       188     199     14.11
3280    80.58   .       .       197     205     14.32
3281    80.60   .       .       195     211     14.53
3282    80.62   .       .       194     219     14.80
3283    80.64   .       .       213     226     15.03
3284    80.66   .       .       222     232     15.23
3285    80.68   .       .       214     237     15.39
3286    80.70   .       .       240     240     15.49
3287    80.72   .       .       241     243     15.59
3288    80.74   .       .       254     245     15.65
3289    80.76   .       .       224     249     15.78
3290    80.78   .       .       243     254     15.94
3291    80.80   .       .       268     263     16.22
3292    80.82   .       .       267     275     16.58
3293    80.84   .       .       274     290     17.03
3294    80.86   .       .       282     307     17.52
3295    80.88   .       .       276     325     18.03
3296    80.90   .       .       310     341     18.47
3297    80.92   .       .       347     352     18.76
3298    80.94   .       .       327     358     18.92
3299    80.96   .       .       312     357     18.89
3300    80.98   .       .       323     350     18.71
3301    81.00   .       .       302     340     18.44
3302    81.02   .       .       321     327     18.08
3303    81.04   .       .       290     315     17.75
3304    81.06   .       .       283     302     17.38
3305    81.08   .       .       305     292     17.09
3306    81.10   .       .       276     283     16.82
3307    81.12   .       .       251     275     16.58
3308    81.14   .       .       260     268     16.37
3309    81.16   .       .       231     262     16.19
3310    81.18   .       .       238     254     15.94
3311    81.20   .       .       207     245     15.65
3312    81.22   .       .       237     235     15.33
3313    81.24   .       .       185     224     14.97
3314    81.26   .       .       205     212     14.56
3315    81.28   .       .       196     201     14.18
3316    81.30   .       .       183     190     13.78
3317    81.32   .       .       161     180     13.42
3318    81.34   .       .       152     170     13.04
3319    81.36   .       .       154     162     12.73
3320    81.38   .       .       156     154     12.41
3321    81.40   .       .       150     147     12.12
3322    81.42   .       .       117     142     11.92
3323    81.44   .       .       103     136     11.66
3324    81.46   .       .       122     132     11.49
3325    81.48   .       .       129     128     11.31
3326    81.50   .       .       109     124     11.14
3327    81.52   .       .       124     120     10.95
3328    81.54   .       .       106     117     10.82
3329    81.56   .       .       100     114     10.68
3330    81.58   .       .       112     112     10.58
3331    81.60   .       .       114     110     10.49
3332    81.62   .       .       106     108     10.39
3333    81.64   .       .       112     107     10.34
3334    81.66   .       .       115     106     10.30
3335    81.68   .       .       95      105     10.25
3336    81.70   .       .       105     105     10.25
3337    81.72   .       .       108     104     10.20
3338    81.74   .       .       96      104     10.20
3339    81.76   .       .       104     104     10.20
3340    81.78   .       .       99      104     10.20
3341    81.80   .       .       91      104     10.20
3342    81.82   .       .       110     105     10.25
3343    81.84   .       .       110     107     10.34
3344    81.86   .       .       107     109     10.44
3345    81.88   .       .       94      111     10.54
3346    81.90   .       .       131     115     10.72
3347    81.92   .       .       101     119     10.91
3348    81.94   .       .       119     124     11.14
3349    81.96   .       .       117     129     11.36
3350    81.98   .       .       131     134     11.58
3351    82.00   .       .       130     139     11.79
3352    82.02   .       .       143     143     11.96
3353    82.04   .       .       122     145     12.04
3354    82.06   .       .       170     147     12.12
3355    82.08   .       .       156     147     12.12
3356    82.10   .       .       160     145     12.04
3357    82.12   .       .       153     143     11.96
3358    82.14   .       .       137     141     11.87
3359    82.16   .       .       124     138     11.75
3360    82.18   .       .       127     137     11.70
3361    82.20   .       .       135     135     11.62
3362    82.22   .       .       134     135     11.62
3363    82.24   .       .       118     134     11.58
3364    82.26   .       .       129     133     11.53
3365    82.28   .       .       130     132     11.49
3366    82.30   .       .       110     130     11.40
3367    82.32   .       .       110     127     11.27
3368    82.34   .       .       147     124     11.14
3369    82.36   .       .       122     120     10.95
3370    82.38   .       .       105     115     10.72
3371    82.40   .       .       104     111     10.54
3372    82.42   .       .       97      107     10.34
3373    82.44   .       .       111     104     10.20
3374    82.46   .       .       97      101     10.05
3375    82.48   .       .       90      98      9.90
3376    82.50   .       .       86      96      9.80
3377    82.52   .       .       96      94      9.70
3378    82.54   .       .       85      92      9.59
3379    82.56   .       .       82      90      9.49
3380    82.58   .       .       102     88      9.38
3381    82.60   .       .       95      87      9.33
3382    82.62   .       .       105     85      9.22
3383    82.64   .       .       80      83      9.11
3384    82.66   .       .       82      82      9.06
3385    82.68   .       .       73      81      9.00
3386    82.70   .       .       82      80      8.94
3387    82.72   .       .       84      79      8.89
3388    82.74   .       .       81      79      8.89
3389    82.76   .       .       87      78      8.83
3390    82.78   .       .       72      78      8.83
3391    82.80   .       .       71      77      8.77
3392    82.82   .       .       90      77      8.77
3393    82.84   .       .       89      77      8.77
3394    82.86   .       .       76      77      8.77
3395    82.88   .       .       97      77      8.77
3396    82.90   .       .       86      78      8.83
3397    82.92   .       .       90      78      8.83
3398    82.94   .       .       102     79      8.89
3399    82.96   .       .       84      80      8.94
3400    82.98   .       .       96      80      8.94
3401    83.00   .       .       120     81      9.00
3402    83.02   .       .       95      82      9.06
3403    83.04   .       .       99      83      9.11
3404    83.06   .       .       91      84      9.17
3405    83.08   .       .       111     84      9.17
3406    83.10   .       .       109     85      9.22
3407    83.12   .       .       87      85      9.22
3408    83.14   .       .       92      86      9.27
3409    83.16   .       .       110     86      9.27
3410    83.18   .       .       84      88      9.38
3411    83.20   .       .       115     89      9.43
3412    83.22   .       .       98      91      9.54
3413    83.24   .       .       98      92      9.59
3414    83.26   .       .       93      94      9.70
3415    83.28   .       .       103     96      9.80
3416    83.30   .       .       88      98      9.90
3417    83.32   .       .       117     100     10.00
3418    83.34   .       .       111     101     10.05
3419    83.36   .       .       92      102     10.10
3420    83.38   .       .       115     102     10.10
3421    83.40   .       .       128     102     10.10
3422    83.42   .       .       106     101     10.05
3423    83.44   .       .       100     101     10.05
3424    83.46   .       .       113     101     10.05
3425    83.48   .       .       113     100     10.00
3426    83.50   .       .       107     100     10.00
3427    83.52   .       .       100     100     10.00
3428    83.54   .       .       104     100     10.00
3429    83.56   .       .       102     100     10.00
3430    83.58   .       .       106     101     10.05
3431    83.60   .       .       87      102     10.10
3432    83.62   .       .       106     103     10.15
3433    83.64   .       .       119     105     10.25
3434    83.66   .       .       135     106     10.30
3435    83.68   .       .       110     108     10.39
3436    83.70   .       .       127     110     10.49
3437    83.72   .       .       130     113     10.63
3438    83.74   .       .       107     116     10.77
3439    83.76   .       .       129     120     10.95
3440    83.78   .       .       141     124     11.14
3441    83.80   .       .       153     128     11.31
3442    83.82   .       .       156     132     11.49
3443    83.84   .       .       151     134     11.58
3444    83.86   .       .       153     136     11.66
3445    83.88   .       .       158     136     11.66
3446    83.90   .       .       172     134     11.58
3447    83.92   .       .       151     132     11.49
3448    83.94   .       .       130     130     11.40
3449    83.96   .       .       129     128     11.31
3450    83.98   .       .       133     126     11.22
3451    84.00   .       .       140     125     11.18
3452    84.02   .       .       144     125     11.18
3453    84.04   .       .       123     126     11.22
3454    84.06   .       .       132     127     11.27
3455    84.08   .       .       147     129     11.36
3456    84.10   .       .       142     130     11.40
3457    84.12   .       .       129     131     11.45
3458    84.14   .       .       132     131     11.45
3459    84.16   .       .       145     130     11.40
3460    84.18   .       .       113     129     11.36
3461    84.20   .       .       118     126     11.22
3462    84.22   .       .       128     123     11.09
3463    84.24   .       .       142     120     10.95
3464    84.26   .       .       136     117     10.82
3465    84.28   .       .       107     114     10.68
3466    84.30   .       .       129     113     10.63
3467    84.32   .       .       123     111     10.54
3468    84.34   .       .       133     111     10.54
3469    84.36   .       .       127     111     10.54
3470    84.38   .       .       117     111     10.54
3471    84.40   .       .       109     112     10.58
3472    84.42   .       .       126     113     10.63
3473    84.44   .       .       132     114     10.68
3474    84.46   .       .       115     116     10.77
3475    84.48   .       .       121     117     10.82
3476    84.50   .       .       137     119     10.91
3477    84.52   .       .       138     122     11.05
3478    84.54   .       .       116     125     11.18
3479    84.56   .       .       158     129     11.36
3480    84.58   .       .       158     135     11.62
3481    84.60   .       .       156     142     11.92
3482    84.62   .       .       164     149     12.21
3483    84.64   .       .       169     158     12.57
3484    84.66   .       .       200     168     12.96
3485    84.68   .       .       211     179     13.38
3486    84.70   .       .       187     189     13.75
3487    84.72   .       .       209     198     14.07
3488    84.74   .       .       230     205     14.32
3489    84.76   .       .       204     212     14.56
3490    84.78   .       .       249     219     14.80
3491    84.80   .       .       258     226     15.03
3492    84.82   .       .       297     234     15.30
3493    84.84   .       .       259     242     15.56
3494    84.86   .       .       259     248     15.75
3495    84.88   .       .       272     253     15.91
3496    84.90   .       .       253     256     16.00
3497    84.92   .       .       264     254     15.94
3498    84.94   .       .       249     250     15.81
3499    84.96   .       .       268     245     15.65
3500    84.98   .       .       267     238     15.43
3501    85.00   .       .       256     230     15.17
3502    85.02   .       .       235     223     14.93
3503    85.04   .       .       222     217     14.73
3504    85.06   .       .       219     213     14.59
3505    85.08   .       .       210     209     14.46
3506    85.10   .       .       227     205     14.32
3507    85.12   .       .       215     202     14.21
3508    85.14   .       .       185     197     14.04
3509    85.16   .       .       217     191     13.82
3510    85.18   .       .       182     183     13.53
3511    85.20   .       .       199     175     13.23
3512    85.22   .       .       164     166     12.88
3513    85.24   .       .       168     157     12.53
3514    85.26   .       .       149     149     12.21
3515    85.28   .       .       149     142     11.92
3516    85.30   .       .       138     136     11.66
3517    85.32   .       .       153     130     11.40
3518    85.34   .       .       129     126     11.22
3519    85.36   .       .       133     122     11.05
3520    85.38   .       .       119     118     10.86
3521    85.40   .       .       131     115     10.72
3522    85.42   .       .       121     113     10.63
3523    85.44   .       .       125     110     10.49
3524    85.46   .       .       120     109     10.44
3525    85.48   .       .       125     108     10.39
3526    85.50   .       .       115     107     10.34
3527    85.52   .       .       124     107     10.34
3528    85.54   .       .       106     107     10.34
3529    85.56   .       .       123     108     10.39
3530    85.58   .       .       119     109     10.44
3531    85.60   .       .       117     110     10.49
3532    85.62   .       .       112     110     10.49
3533    85.64   .       .       144     110     10.49
3534    85.66   .       .       116     110     10.49
3535    85.68   .       .       121     109     10.44
3536    85.70   .       .       127     108     10.39
3537    85.72   .       .       109     107     10.34
3538    85.74   .       .       110     106     10.30
3539    85.76   .       .       140     106     10.30
3540    85.78   .       .       133     106     10.30
3541    85.80   .       .       126     107     10.34
3542    85.82   .       .       149     108     10.39
3543    85.84   .       .       123     109     10.44
3544    85.86   .       .       100     110     10.49
3545    85.88   .       .       116     111     10.54
3546    85.90   .       .       110     112     10.58
3547    85.92   .       .       108     111     10.54
3548    85.94   .       .       123     110     10.49
3549    85.96   .       .       109     109     10.44
3550    85.98   .       .       125     107     10.34
3551    86.00   .       .       110     105     10.25
3552    86.02   .       .       103     103     10.15
3553    86.04   .       .       128     102     10.10
3554    86.06   .       .       101     100     10.00
3555    86.08   .       .       104     99      9.95
3556    86.10   .       .       106     99      9.95
3557    86.12   .       .       110     98      9.90
3558    86.14   .       .       107     98      9.90
3559    86.16   .       .       123     98      9.90
3560    86.18   .       .       104     98      9.90
3561    86.20   .       .       107     98      9.90
3562    86.22   .       .       95      98      9.90
3563    86.24   .       .       111     99      9.95
3564    86.26   .       .       103     99      9.95
3565    86.28   .       .       106     99      9.95
3566    86.30   .       .       106     100     10.00
3567    86.32   .       .       135     101     10.05
3568    86.34   .       .       133     103     10.15
3569    86.36   .       .       118     105     10.25
3570    86.38   .       .       109     107     10.34
3571    86.40   .       .       150     111     10.54
3572    86.42   .       .       123     114     10.68
3573    86.44   .       .       129     119     10.91
3574    86.46   .       .       144     125     11.18
3575    86.48   .       .       170     131     11.45
3576    86.50   .       .       151     139     11.79
3577    86.52   .       .       163     147     12.12
3578    86.54   .       .       177     157     12.53
3579    86.56   .       .       182     166     12.88
3580    86.58   .       .       180     175     13.23
3581    86.60   .       .       210     184     13.56
3582    86.62   .       .       219     191     13.82
3583    86.64   .       .       217     196     14.00
3584    86.66   .       .       234     200     14.14
3585    86.68   .       .       207     203     14.25
3586    86.70   .       .       215     205     14.32
3587    86.72   .       .       234     206     14.35
3588    86.74   .       .       239     207     14.39
3589    86.76   .       .       200     207     14.39
3590    86.78   .       .       215     206     14.35
3591    86.80   .       .       192     205     14.32
3592    86.82   .       .       219     203     14.25
3593    86.84   .       .       221     200     14.14
3594    86.86   .       .       222     198     14.07
3595    86.88   .       .       204     195     13.96
3596    86.90   .       .       200     192     13.86
3597    86.92   .       .       197     190     13.78
3598    86.94   .       .       206     187     13.67
3599    86.96   .       .       173     186     13.64
3600    86.98   .       .       186     185     13.60
3601    87.00   .       .       204     184     13.56
3602    87.02   .       .       183     183     13.53
3603    87.04   .       .       164     183     13.53
3604    87.06   .       .       175     183     13.53
3605    87.08   .       .       187     183     13.53
3606    87.10   .       .       179     182     13.49
3607    87.12   .       .       159     181     13.45
3608    87.14   .       .       178     179     13.38
3609    87.16   .       .       189     178     13.34
3610    87.18   .       .       171     175     13.23
3611    87.20   .       .       190     172     13.11
3612    87.22   .       .       167     168     12.96
3613    87.24   .       .       146     163     12.77
3614    87.26   .       .       176     158     12.57
3615    87.28   .       .       173     152     12.33
3616    87.30   .       .       150     147     12.12
3617    87.32   .       .       148     142     11.92
3618    87.34   .       .       145     138     11.75
3619    87.36   .       .       120     134     11.58
3620    87.38   .       .       116     131     11.45
3621    87.40   .       .       110     129     11.36
3622    87.42   .       .       120     126     11.22
3623    87.44   .       .       132     124     11.14
3624    87.46   .       .       126     121     11.00
3625    87.48   .       .       109     118     10.86
3626    87.50   .       .       124     115     10.72
3627    87.52   .       .       120     111     10.54
3628    87.54   .       .       104     107     10.34
3629    87.56   .       .       127     102     10.10
3630    87.58   .       .       118     99      9.95
3631    87.60   .       .       112     95      9.75
3632    87.62   .       .       94      92      9.59
3633    87.64   .       .       97      89      9.43
3634    87.66   .       .       91      86      9.27
3635    87.68   .       .       84      84      9.17
3636    87.70   .       .       84      82      9.06
3637    87.72   .       .       94      80      8.94
3638    87.74   .       .       110     79      8.89
3639    87.76   .       .       82      78      8.83
3640    87.78   .       .       82      77      8.77
3641    87.80   .       .       100     76      8.72
3642    87.82   .       .       81      75      8.66
3643    87.84   .       .       91      74      8.60
3644    87.86   .       .       72      74      8.60
3645    87.88   .       .       94      73      8.54
3646    87.90   .       .       83      73      8.54
3647    87.92   .       .       70      73      8.54
3648    87.94   .       .       84      73      8.54
3649    87.96   .       .       82      72      8.49
3650    87.98   .       .       76      72      8.49
3651    88.00   .       .       70      74      8.60
3652    88.02   .       .       92      74      8.60
3653    88.04   .       .       82      73      8.54
3654    88.06   .       .       76      73      8.54
3655    88.08   .       .       75      73      8.54
3656    88.10   .       .       84      73      8.54
3657    88.12   .       .       69      72      8.49
3658    88.14   .       .       89      72      8.49
3659    88.16   .       .       86      72      8.49
3660    88.18   .       .       83      71      8.43
3661    88.20   .       .       97      71      8.43
3662    88.22   .       .       86      71      8.43
3663    88.24   .       .       98      71      8.43
3664    88.26   .       .       81      71      8.43
3665    88.28   .       .       83      71      8.43
3666    88.30   .       .       80      71      8.43
3667    88.32   .       .       89      70      8.37
3668    88.34   .       .       98      70      8.37
3669    88.36   .       .       74      70      8.37
3670    88.38   .       .       72      70      8.37
3671    88.40   .       .       76      69      8.31
3672    88.42   .       .       84      69      8.31
3673    88.44   .       .       68      68      8.25
3674    88.46   .       .       89      68      8.25
3675    88.48   .       .       71      68      8.25
3676    88.50   .       .       87      68      8.25
3677    88.52   .       .       75      67      8.19
3678    88.54   .       .       78      67      8.19
3679    88.56   .       .       88      67      8.19
3680    88.58   .       .       79      67      8.19
3681    88.60   .       .       84      67      8.19
3682    88.62   .       .       58      67      8.19
3683    88.64   .       .       77      66      8.12
3684    88.66   .       .       70      66      8.12
3685    88.68   .       .       82      66      8.12
3686    88.70   .       .       68      66      8.12
3687    88.72   .       .       74      66      8.12
3688    88.74   .       .       64      66      8.12
3689    88.76   .       .       67      66      8.12
3690    88.78   .       .       75      66      8.12
3691    88.80   .       .       75      66      8.12
3692    88.82   .       .       78      66      8.12
3693    88.84   .       .       58      66      8.12
3694    88.86   .       .       62      66      8.12
3695    88.88   .       .       79      66      8.12
3696    88.90   .       .       78      66      8.12
3697    88.92   .       .       83      67      8.19
3698    88.94   .       .       77      67      8.19
3699    88.96   .       .       67      67      8.19
3700    88.98   .       .       73      67      8.19
3701    89.00   .       .       81      67      8.19
3702    89.02   .       .       68      67      8.19
3703    89.04   .       .       83      68      8.25
3704    89.06   .       .       82      68      8.25
3705    89.08   .       .       69      68      8.25
3706    89.10   .       .       74      69      8.31
3707    89.12   .       .       86      69      8.31
3708    89.14   .       .       82      69      8.31
3709    89.16   .       .       89      70      8.37
3710    89.18   .       .       94      71      8.43
3711    89.20   .       .       65      72      8.49
3712    89.22   .       .       81      72      8.49
3713    89.24   .       .       66      73      8.54
3714    89.26   .       .       79      74      8.60
3715    89.28   .       .       71      74      8.60
3716    89.30   .       .       83      75      8.66
3717    89.32   .       .       80      76      8.72
3718    89.34   .       .       71      77      8.77
3719    89.36   .       .       76      78      8.83
3720    89.38   .       .       86      79      8.89
3721    89.40   .       .       92      81      9.00
3722    89.42   .       .       104     82      9.06
3723    89.44   .       .       93      84      9.17
3724    89.46   .       .       111     86      9.27
3725    89.48   .       .       85      88      9.38
3726    89.50   .       .       97      90      9.49
3727    89.52   .       .       103     93      9.64
3728    89.54   .       .       97      96      9.80
3729    89.56   .       .       104     99      9.95
3730    89.58   .       .       119     103     10.15
3731    89.60   .       .       122     108     10.39
3732    89.62   .       .       105     113     10.63
3733    89.64   .       .       130     119     10.91
3734    89.66   .       .       136     125     11.18
3735    89.68   .       .       139     133     11.53
3736    89.70   .       .       126     142     11.92
3737    89.72   .       .       156     153     12.37
3738    89.74   .       .       171     164     12.81
3739    89.76   .       .       197     178     13.34
3740    89.78   .       .       166     192     13.86
3741    89.80   .       .       217     207     14.39
3742    89.82   .       .       213     221     14.87
3743    89.84   .       .       216     234     15.30
3744    89.86   .       .       237     243     15.59
3745    89.88   .       .       291     248     15.75
3746    89.90   .       .       269     249     15.78
3747    89.92   .       .       266     245     15.65
3748    89.94   .       .       245     238     15.43
3749    89.96   .       .       240     229     15.13
3750    89.98   .       .       237     219     14.80
3751    90.00   .       .       223     211     14.53
3752    90.02   .       .       195     204     14.28
3753    90.04   .       .       208     199     14.11
3754    90.06   .       .       197     196     14.00
3755    90.08   .       .       167     194     13.93
3756    90.10   .       .       172     194     13.93
3757    90.12   .       .       184     193     13.89
3758    90.14   .       .       177     192     13.86
3759    90.16   .       .       171     189     13.75
3760    90.18   .       .       155     185     13.60
3761    90.20   .       .       175     178     13.34
3762    90.22   .       .       175     171     13.08
3763    90.24   .       .       182     162     12.73
3764    90.26   .       .       138     154     12.41
3765    90.28   .       .       134     146     12.08
3766    90.30   .       .       149     138     11.75
3767    90.32   .       .       137     132     11.49
3768    90.34   .       .       140     126     11.22
3769    90.36   .       .       122     121     11.00
3770    90.38   .       .       119     117     10.82
3771    90.40   .       .       99      113     10.63
3772    90.42   .       .       118     110     10.49
3773    90.44   .       .       111     108     10.39
3774    90.46   .       .       104     106     10.30
3775    90.48   .       .       116     105     10.25
3776    90.50   .       .       95      104     10.20
3777    90.52   .       .       88      104     10.20
3778    90.54   .       .       85      104     10.20
3779    90.56   .       .       105     104     10.20
3780    90.58   .       .       97      105     10.25
3781    90.60   .       .       112     106     10.30
3782    90.62   .       .       109     108     10.39
3783    90.64   .       .       109     110     10.49
3784    90.66   .       .       105     113     10.63
3785    90.68   .       .       132     117     10.82
3786    90.70   .       .       143     121     11.00
3787    90.72   .       .       130     126     11.22
3788    90.74   .       .       129     131     11.45
3789    90.76   .       .       172     138     11.75
3790    90.78   .       .       161     146     12.08
3791    90.80   .       .       157     154     12.41
3792    90.82   .       .       189     163     12.77
3793    90.84   .       .       190     173     13.15
3794    90.86   .       .       195     182     13.49
3795    90.88   .       .       182     190     13.78
3796    90.90   .       .       208     197     14.04
3797    90.92   .       .       189     204     14.28
3798    90.94   .       .       214     209     14.46
3799    90.96   .       .       246     214     14.63
3800    90.98   .       .       221     217     14.73
3801    91.00   .       .       250     221     14.87
3802    91.02   .       .       228     223     14.93
3803    91.04   .       .       240     224     14.97
3804    91.06   .       .       248     225     15.00
3805    91.08   .       .       222     226     15.03
3806    91.10   .       .       205     227     15.07
3807    91.12   .       .       251     227     15.07
3808    91.14   .       .       223     227     15.07
3809    91.16   .       .       239     225     15.00
3810    91.18   .       .       224     222     14.90
3811    91.20   .       .       237     218     14.76
3812    91.22   .       .       215     212     14.56
3813    91.24   .       .       225     206     14.35
3814    91.26   .       .       189     200     14.14
3815    91.28   .       .       188     193     13.89
3816    91.30   .       .       213     187     13.67
3817    91.32   .       .       177     180     13.42
3818    91.34   .       .       161     174     13.19
3819    91.36   .       .       170     168     12.96
3820    91.38   .       .       159     162     12.73
3821    91.40   .       .       161     157     12.53
3822    91.42   .       .       160     152     12.33
3823    91.44   .       .       131     147     12.12
3824    91.46   .       .       139     142     11.92
3825    91.48   .       .       132     137     11.70
3826    91.50   .       .       141     131     11.45
3827    91.52   .       .       136     126     11.22
3828    91.54   .       .       112     121     11.00
3829    91.56   .       .       125     117     10.82
3830    91.58   .       .       109     113     10.63
3831    91.60   .       .       110     109     10.44
3832    91.62   .       .       98      106     10.30
3833    91.64   .       .       96      103     10.15
3834    91.66   .       .       101     101     10.05
3835    91.68   .       .       102     99      9.95
3836    91.70   .       .       91      98      9.90
3837    91.72   .       .       100     97      9.85
3838    91.74   .       .       94      97      9.85
3839    91.76   .       .       99      96      9.80
3840    91.78   .       .       98      97      9.85
3841    91.80   .       .       103     97      9.85
3842    91.82   .       .       105     97      9.85
3843    91.84   .       .       108     98      9.90
3844    91.86   .       .       83      99      9.95
3845    91.88   .       .       108     101     10.05
3846    91.90   .       .       107     101     10.05
3847    91.92   .       .       110     102     10.10
3848    91.94   .       .       108     102     10.10
3849    91.96   .       .       109     103     10.15
3850    91.98   .       .       115     102     10.10
3851    92.00   .       .       115     102     10.10
3852    92.02   .       .       120     102     10.10
3853    92.04   .       .       98      102     10.10
3854    92.06   .       .       109     102     10.10
3855    92.08   .       .       118     102     10.10
3856    92.10   .       .       108     102     10.10
3857    92.12   .       .       115     103     10.15
3858    92.14   .       .       95      105     10.25
3859    92.16   .       .       106     106     10.30
3860    92.18   .       .       112     109     10.44
3861    92.20   .       .       124     111     10.54
3862    92.22   .       .       125     113     10.63
3863    92.24   .       .       119     116     10.77
3864    92.26   .       .       142     117     10.82
3865    92.28   .       .       106     119     10.91
3866    92.30   .       .       137     119     10.91
3867    92.32   .       .       137     119     10.91
3868    92.34   .       .       135     118     10.86
3869    92.36   .       .       110     116     10.77
3870    92.38   .       .       127     114     10.68
3871    92.40   .       .       103     112     10.58
3872    92.42   .       .       90      110     10.49
3873    92.44   .       .       134     108     10.39
3874    92.46   .       .       97      106     10.30
3875    92.48   .       .       110     105     10.25
3876    92.50   .       .       122     104     10.20
3877    92.52   .       .       113     104     10.20
3878    92.54   .       .       102     104     10.20
3879    92.56   .       .       112     103     10.15
3880    92.58   .       .       104     103     10.15
3881    92.60   .       .       91      103     10.15
3882    92.62   .       .       85      102     10.10
3883    92.64   .       .       117     102     10.10
3884    92.66   .       .       88      101     10.05
3885    92.68   .       .       100     100     10.00
3886    92.70   .       .       108     100     10.00
3887    92.72   .       .       112     99      9.95
3888    92.74   .       .       99      99      9.95
3889    92.76   .       .       88      99      9.95
3890    92.78   .       .       120     99      9.95
3891    92.80   .       .       120     100     10.00
3892    92.82   .       .       114     101     10.05
3893    92.84   .       .       109     103     10.15
3894    92.86   .       .       120     104     10.20
3895    92.88   .       .       111     106     10.30
3896    92.90   .       .       106     107     10.34
3897    92.92   .       .       117     109     10.44
3898    92.94   .       .       114     110     10.49
3899    92.96   .       .       138     111     10.54
3900    92.98   .       .       122     112     10.58
3901    93.00   .       .       100     112     10.58
3902    93.02   .       .       130     113     10.63
3903    93.04   .       .       128     114     10.68
3904    93.06   .       .       117     115     10.72
3905    93.08   .       .       130     115     10.72
3906    93.10   .       .       110     116     10.77
3907    93.12   .       .       108     117     10.82
3908    93.14   .       .       128     118     10.86
3909    93.16   .       .       139     119     10.91
3910    93.18   .       .       121     120     10.95
3911    93.20   .       .       153     121     11.00
3912    93.22   .       .       121     122     11.05
3913    93.24   .       .       111     122     11.05
3914    93.26   .       .       145     122     11.05
3915    93.28   .       .       108     122     11.05
3916    93.30   .       .       122     121     11.00
3917    93.32   .       .       147     120     10.95
3918    93.34   .       .       119     118     10.86
3919    93.36   .       .       109     117     10.82
3920    93.38   .       .       148     116     10.77
3921    93.40   .       .       144     115     10.72
3922    93.42   .       .       117     114     10.68
3923    93.44   .       .       117     113     10.63
3924    93.46   .       .       127     113     10.63
3925    93.48   .       .       134     113     10.63
3926    93.50   .       .       116     113     10.63
3927    93.52   .       .       117     114     10.68
3928    93.54   .       .       121     115     10.72
3929    93.56   .       .       129     116     10.77
3930    93.58   .       .       114     118     10.86
3931    93.60   .       .       122     119     10.91
3932    93.62   .       .       118     120     10.95
3933    93.64   .       .       129     121     11.00
3934    93.66   .       .       131     122     11.05
3935    93.68   .       .       129     123     11.09
3936    93.70   .       .       127     124     11.14
3937    93.72   .       .       119     126     11.22
3938    93.74   .       .       151     128     11.31
3939    93.76   .       .       145     130     11.40
3940    93.78   .       .       119     133     11.53
3941    93.80   .       .       141     136     11.66
3942    93.82   .       .       122     140     11.83
3943    93.84   .       .       162     145     12.04
3944    93.86   .       .       126     149     12.21
3945    93.88   .       .       147     153     12.37
3946    93.90   .       .       174     156     12.49
3947    93.92   .       .       159     159     12.61
3948    93.94   .       .       176     162     12.73
3949    93.96   .       .       171     164     12.81
3950    93.98   .       .       167     166     12.88
3951    94.00   .       .       155     168     12.96
3952    94.02   .       .       172     171     13.08
3953    94.04   .       .       137     174     13.19
3954    94.06   .       .       171     177     13.30
3955    94.08   .       .       160     181     13.45
3956    94.10   .       .       200     185     13.60
3957    94.12   .       .       188     190     13.78
3958    94.14   .       .       199     194     13.93
3959    94.16   .       .       193     199     14.11
3960    94.18   .       .       209     203     14.25
3961    94.20   .       .       211     207     14.39
3962    94.22   .       .       212     211     14.53
3963    94.24   .       .       216     214     14.63
3964    94.26   .       .       194     217     14.73
3965    94.28   .       .       204     219     14.80
3966    94.30   .       .       206     220     14.83
3967    94.32   .       .       215     219     14.80
3968    94.34   .       .       201     216     14.70
3969    94.36   .       .       202     212     14.56
3970    94.38   .       .       223     206     14.35
3971    94.40   .       .       193     199     14.11
3972    94.42   .       .       228     193     13.89
3973    94.44   .       .       176     186     13.64
3974    94.46   .       .       193     181     13.45
3975    94.48   .       .       170     175     13.23
3976    94.50   .       .       165     171     13.08
3977    94.52   .       .       165     168     12.96
3978    94.54   .       .       186     165     12.85
3979    94.56   .       .       161     163     12.77
3980    94.58   .       .       159     161     12.69
3981    94.60   .       .       170     159     12.61
3982    94.62   .       .       167     157     12.53
3983    94.64   .       .       154     154     12.41
3984    94.66   .       .       149     150     12.25
3985    94.68   .       .       146     146     12.08
3986    94.70   .       .       154     142     11.92
3987    94.72   .       .       133     137     11.70
3988    94.74   .       .       144     132     11.49
3989    94.76   .       .       131     127     11.27
3990    94.78   .       .       126     122     11.05
3991    94.80   .       .       142     118     10.86
3992    94.82   .       .       113     114     10.68
3993    94.84   .       .       102     111     10.54
3994    94.86   .       .       117     108     10.39
3995    94.88   .       .       123     106     10.30
3996    94.90   .       .       124     104     10.20
3997    94.92   .       .       117     103     10.15
3998    94.94   .       .       97      102     10.10
3999    94.96   .       .       107     102     10.10
4000    94.98   .       .       96      102     10.10
4001    95.00   .       .       112     102     10.10
4002    95.02   .       .       107     102     10.10
4003    95.04   .       .       113     102     10.10
4004    95.06   .       .       109     103     10.15
4005    95.08   .       .       93      104     10.20
4006    95.10   .       .       109     105     10.25
4007    95.12   .       .       111     106     10.30
4008    95.14   .       .       121     107     10.34
4009    95.16   .       .       142     109     10.44
4010    95.18   .       .       118     111     10.54
4011    95.20   .       .       118     113     10.63
4012    95.22   .       .       110     115     10.72
4013    95.24   .       .       110     117     10.82
4014    95.26   .       .       121     120     10.95
4015    95.28   .       .       134     123     11.09
4016    95.30   .       .       145     126     11.22
4017    95.32   .       .       150     130     11.40
4018    95.34   .       .       129     134     11.58
4019    95.36   .       .       158     138     11.75
4020    95.38   .       .       137     143     11.96
4021    95.40   .       .       154     148     12.17
4022    95.42   .       .       167     152     12.33
4023    95.44   .       .       175     157     12.53
4024    95.46   .       .       160     160     12.65
4025    95.48   .       .       181     163     12.77
4026    95.50   .       .       179     164     12.81
4027    95.52   .       .       165     164     12.81
4028    95.54   .       .       158     162     12.73
4029    95.56   .       .       203     159     12.61
4030    95.58   .       .       177     155     12.45
4031    95.60   .       .       146     151     12.29
4032    95.62   .       .       156     148     12.17
4033    95.64   .       .       144     144     12.00
4034    95.66   .       .       160     141     11.87
4035    95.68   .       .       168     139     11.79
4036    95.70   .       .       142     137     11.70
4037    95.72   .       .       124     136     11.66
4038    95.74   .       .       145     135     11.62
4039    95.76   .       .       138     134     11.58
4040    95.78   .       .       135     133     11.53
4041    95.80   .       .       124     132     11.49
4042    95.82   .       .       157     130     11.40
4043    95.84   .       .       143     128     11.31
4044    95.86   .       .       118     125     11.18
4045    95.88   .       .       133     122     11.05
4046    95.90   .       .       120     118     10.86
4047    95.92   .       .       122     114     10.68
4048    95.94   .       .       108     110     10.49
4049    95.96   .       .       116     107     10.34
4050    95.98   .       .       96      103     10.15
4051    96.00   .       .       122     100     10.00
4052    96.02   .       .       97      97      9.85
4053    96.04   .       .       99      94      9.70
4054    96.06   .       .       93      92      9.59
4055    96.08   .       .       115     90      9.49
4056    96.10   .       .       86      88      9.38
4057    96.12   .       .       92      87      9.33
4058    96.14   .       .       91      86      9.27
4059    96.16   .       .       92      85      9.22
4060    96.18   .       .       89      84      9.17
4061    96.20   .       .       111     83      9.11
4062    96.22   .       .       99      82      9.06
4063    96.24   .       .       78      81      9.00
4064    96.26   .       .       88      80      8.94
4065    96.28   .       .       77      79      8.89
4066    96.30   .       .       89      78      8.83
4067    96.32   .       .       87      78      8.83
4068    96.34   .       .       69      77      8.77
4069    96.36   .       .       83      77      8.77
4070    96.38   .       .       91      77      8.77
4071    96.40   .       .       96      76      8.72
4072    96.42   .       .       88      76      8.72
4073    96.44   .       .       81      76      8.72
4074    96.46   .       .       92      76      8.72
4075    96.48   .       .       101     77      8.77
4076    96.50   .       .       114     77      8.77
4077    96.52   .       .       91      78      8.83
4078    96.54   .       .       91      79      8.89
4079    96.56   .       .       111     80      8.94
4080    96.58   .       .       91      81      9.00
4081    96.60   .       .       96      82      9.06
4082    96.62   .       .       92      84      9.17
4083    96.64   .       .       88      85      9.22
4084    96.66   .       .       106     86      9.27
4085    96.68   .       .       110     87      9.33
4086    96.70   .       .       110     88      9.38
4087    96.72   .       .       85      89      9.43
4088    96.74   .       .       101     89      9.43
4089    96.76   .       .       97      88      9.38
4090    96.78   .       .       87      88      9.38
4091    96.80   .       .       108     88      9.38
4092    96.82   .       .       99      87      9.33
4093    96.84   .       .       101     87      9.33
4094    96.86   .       .       105     88      9.38
4095    96.88   .       .       85      88      9.38
4096    96.90   .       .       115     89      9.43
4097    96.92   .       .       88      90      9.49
4098    96.94   .       .       73      92      9.59
4099    96.96   .       .       96      93      9.64
4100    96.98   .       .       104     95      9.75
4101    97.00   .       .       102     97      9.85
4102    97.02   .       .       103     99      9.95
4103    97.04   .       .       114     101     10.05
4104    97.06   .       .       123     104     10.20
4105    97.08   .       .       112     106     10.30
4106    97.10   .       .       131     108     10.39
4107    97.12   .       .       124     110     10.49
4108    97.14   .       .       112     112     10.58
4109    97.16   .       .       113     114     10.68
4110    97.18   .       .       131     116     10.77
4111    97.20   .       .       134     118     10.86
4112    97.22   .       .       127     121     11.00
4113    97.24   .       .       127     123     11.09
4114    97.26   .       .       100     125     11.18
4115    97.28   .       .       126     126     11.22
4116    97.30   .       .       128     127     11.27
4117    97.32   .       .       143     127     11.27
4118    97.34   .       .       122     126     11.22
4119    97.36   .       .       139     125     11.18
4120    97.38   .       .       139     123     11.09
4121    97.40   .       .       121     122     11.05
4122    97.42   .       .       122     120     10.95
4123    97.44   .       .       132     118     10.86
4124    97.46   .       .       132     117     10.82
4125    97.48   .       .       124     116     10.77
4126    97.50   .       .       118     115     10.72
4127    97.52   .       .       125     114     10.68
4128    97.54   .       .       124     114     10.68
4129    97.56   .       .       128     114     10.68
4130    97.58   .       .       132     113     10.63
4131    97.60   .       .       107     113     10.63
4132    97.62   .       .       114     112     10.58
4133    97.64   .       .       110     112     10.58
4134    97.66   .       .       94      111     10.54
4135    97.68   .       .       123     110     10.49
4136    97.70   .       .       116     108     10.39
4137    97.72   .       .       95      106     10.30
4138    97.74   .       .       97      105     10.25
4139    97.76   .       .       102     103     10.15
4140    97.78   .       .       98      101     10.05
4141    97.80   .       .       89      100     10.00
4142    97.82   .       .       96      97      9.85
4143    97.84   .       .       96      95      9.75
4144    97.86   .       .       102     93      9.64
4145    97.88   .       .       95      91      9.54
4146    97.90   .       .       106     89      9.43
4147    97.92   .       .       93      87      9.33
4148    97.94   .       .       87      86      9.27
4149    97.96   .       .       75      85      9.22
4150    97.98   .       .       91      84      9.17
4151    98.00   .       .       79      83      9.11
4152    98.02   .       .       81      82      9.06
4153    98.04   .       .       86      81      9.00
4154    98.06   .       .       81      80      8.94
4155    98.08   .       .       85      80      8.94
4156    98.10   .       .       88      79      8.89
4157    98.12   .       .       82      78      8.83
4158    98.14   .       .       94      77      8.77
4159    98.16   .       .       82      77      8.77
4160    98.18   .       .       62      76      8.72
4161    98.20   .       .       87      75      8.66
4162    98.22   .       .       79      74      8.60
4163    98.24   .       .       74      73      8.54
4164    98.26   .       .       82      73      8.54
4165    98.28   .       .       73      72      8.49
4166    98.30   .       .       62      72      8.49
4167    98.32   .       .       74      71      8.43
4168    98.34   .       .       81      71      8.43
4169    98.36   .       .       73      71      8.43
4170    98.38   .       .       67      71      8.43
4171    98.40   .       .       76      70      8.37
4172    98.42   .       .       103     70      8.37
4173    98.44   .       .       67      70      8.37
4174    98.46   .       .       72      70      8.37
4175    98.48   .       .       96      70      8.37
4176    98.50   .       .       77      70      8.37
4177    98.52   .       .       81      70      8.37
4178    98.54   .       .       77      71      8.43
4179    98.56   .       .       96      71      8.43
4180    98.58   .       .       67      71      8.43
4181    98.60   .       .       66      72      8.49
4182    98.62   .       .       69      72      8.49
4183    98.64   .       .       78      72      8.49
4184    98.66   .       .       84      73      8.54
4185    98.68   .       .       82      73      8.54
4186    98.70   .       .       81      73      8.54
4187    98.72   .       .       84      74      8.60
4188    98.74   .       .       69      74      8.60
4189    98.76   .       .       82      75      8.66
4190    98.78   .       .       76      75      8.66
4191    98.80   .       .       88      76      8.72
4192    98.82   .       .       72      76      8.72
4193    98.84   .       .       97      77      8.77
4194    98.86   .       .       79      78      8.83
4195    98.88   .       .       68      79      8.89
4196    98.90   .       .       77      80      8.94
4197    98.92   .       .       71      81      9.00
4198    98.94   .       .       72      82      9.06
4199    98.96   .       .       81      83      9.11
4200    98.98   .       .       80      85      9.22
4201    99.00   .       .       101     86      9.27
4202    99.02   .       .       110     88      9.38
4203    99.04   .       .       87      90      9.49
4204    99.06   .       .       116     91      9.54
4205    99.08   .       .       87      93      9.64
4206    99.10   .       .       96      95      9.75
4207    99.12   .       .       108     97      9.85
4208    99.14   .       .       92      98      9.90
4209    99.16   .       .       85      100     10.00
4210    99.18   .       .       100     101     10.05
4211    99.20   .       .       105     102     10.10
4212    99.22   .       .       105     103     10.15
4213    99.24   .       .       94      104     10.20
4214    99.26   .       .       99      105     10.25
4215    99.28   .       .       110     106     10.30
4216    99.30   .       .       122     108     10.39
4217    99.32   .       .       95      110     10.49
4218    99.34   .       .       117     112     10.58
4219    99.36   .       .       115     115     10.72
4220    99.38   .       .       108     118     10.86
4221    99.40   .       .       124     122     11.05
4222    99.42   .       .       121     126     11.22
4223    99.44   .       .       131     130     11.40
4224    99.46   .       .       144     135     11.62
4225    99.48   .       .       137     141     11.87
4226    99.50   .       .       136     147     12.12
4227    99.52   .       .       164     154     12.41
4228    99.54   .       .       155     161     12.69
4229    99.56   .       .       174     168     12.96
4230    99.58   .       .       169     176     13.27
4231    99.60   .       .       179     183     13.53
4232    99.62   .       .       202     191     13.82
4233    99.64   .       .       176     197     14.04
4234    99.66   .       .       188     203     14.25
4235    99.68   .       .       187     207     14.39
4236    99.70   .       .       225     210     14.49
4237    99.72   .       .       216     212     14.56
4238    99.74   .       .       201     213     14.59
4239    99.76   .       .       223     213     14.59
4240    99.78   .       .       232     213     14.59
4241    99.80   .       .       229     214     14.63
4242    99.82   .       .       222     216     14.70
4243    99.84   .       .       235     219     14.80
4244    99.86   .       .       183     222     14.90
4245    99.88   .       .       233     226     15.03
4246    99.90   .       .       207     230     15.17
4247    99.92   .       .       216     234     15.30
4248    99.94   .       .       260     237     15.39
4249    99.96   .       .       246     239     15.46
4250    99.98   .       .       202     239     15.46
4251    100.00  .       .       230     238     15.43
4252    100.02  .       .       223     236     15.36
4253    100.04  .       .       212     233     15.26
4254    100.06  .       .       238     230     15.17
4255    100.08  .       .       245     227     15.07
4256    100.10  .       .       244     224     14.97
4257    100.12  .       .       253     222     14.90
4258    100.14  .       .       221     221     14.87
4259    100.16  .       .       224     222     14.90
4260    100.18  .       .       225     224     14.97
4261    100.20  .       .       209     228     15.10
4262    100.22  .       .       245     233     15.26
4263    100.24  .       .       226     239     15.46
4264    100.26  .       .       235     246     15.68
4265    100.28  .       .       235     254     15.94
4266    100.30  .       .       282     263     16.22
4267    100.32  .       .       274     273     16.52
4268    100.34  .       .       288     283     16.82
4269    100.36  .       .       312     294     17.15
4270    100.38  .       .       269     304     17.44
4271    100.40  .       .       309     314     17.72
4272    100.42  .       .       305     323     17.97
4273    100.44  .       .       313     331     18.19
4274    100.46  .       .       334     337     18.36
4275    100.48  .       .       348     341     18.47
4276    100.50  .       .       328     344     18.55
4277    100.52  .       .       362     346     18.60
4278    100.54  .       .       382     347     18.63
4279    100.56  .       .       390     348     18.65
4280    100.58  .       .       360     349     18.68
4281    100.60  .       .       357     351     18.73
4282    100.62  .       .       376     353     18.79
4283    100.64  .       .       314     357     18.89
4284    100.66  .       .       324     362     19.03
4285    100.68  .       .       405     368     19.18
4286    100.70  .       .       333     375     19.36
4287    100.72  .       .       350     381     19.52
4288    100.74  .       .       352     387     19.67
4289    100.76  .       .       357     391     19.77
4290    100.78  .       .       378     391     19.77
4291    100.80  .       .       373     389     19.72
4292    100.82  .       .       397     383     19.57
4293    100.84  .       .       347     374     19.34
4294    100.86  .       .       411     363     19.05
4295    100.88  .       .       358     350     18.71
4296    100.90  .       .       352     336     18.33
4297    100.92  .       .       350     321     17.92
4298    100.94  .       .       319     307     17.52
4299    100.96  .       .       299     294     17.15
4300    100.98  .       .       280     283     16.82
4301    101.00  .       .       255     273     16.52
4302    101.02  .       .       219     264     16.25
4303    101.04  .       .       269     257     16.03
4304    101.06  .       .       209     250     15.81
4305    101.08  .       .       231     244     15.62
4306    101.10  .       .       243     238     15.43
4307    101.12  .       .       228     232     15.23
4308    101.14  .       .       221     225     15.00
4309    101.16  .       .       205     218     14.76
4310    101.18  .       .       208     210     14.49
4311    101.20  .       .       203     202     14.21
4312    101.22  .       .       206     193     13.89
4313    101.24  .       .       208     185     13.60
4314    101.26  .       .       147     177     13.30
4315    101.28  .       .       168     170     13.04
4316    101.30  .       .       162     163     12.77
4317    101.32  .       .       168     157     12.53
4318    101.34  .       .       118     151     12.29
4319    101.36  .       .       126     146     12.08
4320    101.38  .       .       120     142     11.92
4321    101.40  .       .       144     138     11.75
4322    101.42  .       .       147     134     11.58
4323    101.44  .       .       139     131     11.45
4324    101.46  .       .       114     127     11.27
4325    101.48  .       .       117     123     11.09
4326    101.50  .       .       107     120     10.95
4327    101.52  .       .       118     117     10.82
4328    101.54  .       .       109     114     10.68
4329    101.56  .       .       97      111     10.54
4330    101.58  .       .       126     109     10.44
4331    101.60  .       .       107     107     10.34
4332    101.62  .       .       97      106     10.30
4333    101.64  .       .       121     104     10.20
4334    101.66  .       .       96      103     10.15
4335    101.68  .       .       103     101     10.05
4336    101.70  .       .       89      100     10.00
4337    101.72  .       .       115     99      9.95
4338    101.74  .       .       75      98      9.90
4339    101.76  .       .       95      97      9.85
4340    101.78  .       .       109     95      9.75
4341    101.80  .       .       86      94      9.70
4342    101.82  .       .       87      93      9.64
4343    101.84  .       .       78      91      9.54
4344    101.86  .       .       92      90      9.49
4345    101.88  .       .       75      88      9.38
4346    101.90  .       .       86      87      9.33
4347    101.92  .       .       91      86      9.27
4348    101.94  .       .       83      85      9.22
4349    101.96  .       .       78      84      9.17
4350    101.98  .       .       81      83      9.11
4351    102.00  .       .       78      82      9.06
4352    102.02  .       .       93      81      9.00
4353    102.04  .       .       72      80      8.94
4354    102.06  .       .       76      80      8.94
4355    102.08  .       .       97      79      8.89
4356    102.10  .       .       83      78      8.83
4357    102.12  .       .       75      78      8.83
4358    102.14  .       .       65      77      8.77
4359    102.16  .       .       67      77      8.77
4360    102.18  .       .       84      76      8.72
4361    102.20  .       .       72      76      8.72
4362    102.22  .       .       72      75      8.66
4363    102.24  .       .       70      75      8.66
4364    102.26  .       .       82      75      8.66
4365    102.28  .       .       82      75      8.66
4366    102.30  .       .       81      74      8.60
4367    102.32  .       .       84      74      8.60
4368    102.34  .       .       96      74      8.60
4369    102.36  .       .       79      74      8.60
4370    102.38  .       .       63      74      8.60
4371    102.40  .       .       82      74      8.60
4372    102.42  .       .       94      74      8.60
4373    102.44  .       .       69      74      8.60
4374    102.46  .       .       75      75      8.66
4375    102.48  .       .       84      75      8.66
4376    102.50  .       .       85      75      8.66
4377    102.52  .       .       88      75      8.66
4378    102.54  .       .       62      76      8.72
4379    102.56  .       .       63      76      8.72
4380    102.58  .       .       72      77      8.77
4381    102.60  .       .       89      77      8.77
4382    102.62  .       .       70      78      8.83
4383    102.64  .       .       87      79      8.89
4384    102.66  .       .       74      80      8.94
4385    102.68  .       .       89      81      9.00
4386    102.70  .       .       84      82      9.06
4387    102.72  .       .       94      83      9.11
4388    102.74  .       .       87      85      9.22
4389    102.76  .       .       95      86      9.27
4390    102.78  .       .       87      87      9.33
4391    102.80  .       .       86      89      9.43
4392    102.82  .       .       83      90      9.49
4393    102.84  .       .       92      91      9.54
4394    102.86  .       .       80      93      9.64
4395    102.88  .       .       91      93      9.64
4396    102.90  .       .       76      94      9.70
4397    102.92  .       .       90      94      9.70
4398    102.94  .       .       90      94      9.70
4399    102.96  .       .       87      94      9.70
4400    102.98  .       .       100     94      9.70
4401    103.00  .       .       89      93      9.64
4402    103.02  .       .       120     94      9.70
4403    103.04  .       .       109     94      9.70
4404    103.06  .       .       111     94      9.70
4405    103.08  .       .       105     95      9.75
4406    103.10  .       .       115     96      9.80
4407    103.12  .       .       107     97      9.85
4408    103.14  .       .       118     99      9.95
4409    103.16  .       .       137     101     10.05
4410    103.18  .       .       136     103     10.15
4411    103.20  .       .       98      105     10.25
4412    103.22  .       .       98      107     10.34
4413    103.24  .       .       119     109     10.44
4414    103.26  .       .       116     111     10.54
4415    103.28  .       .       111     112     10.58
4416    103.30  .       .       119     113     10.63
4417    103.32  .       .       129     113     10.63
4418    103.34  .       .       159     113     10.63
4419    103.36  .       .       118     112     10.58
4420    103.38  .       .       135     111     10.54
4421    103.40  .       .       114     110     10.49
4422    103.42  .       .       111     108     10.39
4423    103.44  .       .       117     106     10.30
4424    103.46  .       .       111     105     10.25
4425    103.48  .       .       118     104     10.20
4426    103.50  .       .       117     103     10.15
4427    103.52  .       .       109     103     10.15
4428    103.54  .       .       102     103     10.15
4429    103.56  .       .       107     103     10.15
4430    103.58  .       .       99      103     10.15
4431    103.60  .       .       113     104     10.20
4432    103.62  .       .       126     104     10.20
4433    103.64  .       .       103     105     10.25
4434    103.66  .       .       121     106     10.30
4435    103.68  .       .       125     107     10.34
4436    103.70  .       .       113     108     10.39
4437    103.72  .       .       116     109     10.44
4438    103.74  .       .       99      110     10.49
4439    103.76  .       .       105     112     10.58
4440    103.78  .       .       111     113     10.63
4441    103.80  .       .       91      114     10.68
4442    103.82  .       .       106     116     10.77
4443    103.84  .       .       114     118     10.86
4444    103.86  .       .       141     119     10.91
4445    103.88  .       .       109     120     10.95
4446    103.90  .       .       106     121     11.00
4447    103.92  .       .       115     121     11.00
4448    103.94  .       .       119     121     11.00
4449    103.96  .       .       127     120     10.95
4450    103.98  .       .       125     120     10.95
4451    104.00  .       .       136     119     10.91
4452    104.02  .       .       137     118     10.86
4453    104.04  .       .       111     118     10.86
4454    104.06  .       .       125     117     10.82
4455    104.08  .       .       125     117     10.82
4456    104.10  .       .       127     118     10.86
4457    104.12  .       .       115     119     10.91
4458    104.14  .       .       109     120     10.95
4459    104.16  .       .       118     122     11.05
4460    104.18  .       .       122     124     11.14
4461    104.20  .       .       115     125     11.18
4462    104.22  .       .       126     126     11.22
4463    104.24  .       .       111     127     11.27
4464    104.26  .       .       111     127     11.27
4465    104.28  .       .       133     127     11.27
4466    104.30  .       .       131     126     11.22
4467    104.32  .       .       135     124     11.14
4468    104.34  .       .       134     122     11.05
4469    104.36  .       .       145     120     10.95
4470    104.38  .       .       124     118     10.86
4471    104.40  .       .       124     116     10.77
4472    104.42  .       .       124     114     10.68
4473    104.44  .       .       120     113     10.63
4474    104.46  .       .       113     112     10.58
4475    104.48  .       .       120     111     10.54
4476    104.50  .       .       111     111     10.54
4477    104.52  .       .       130     110     10.49
4478    104.54  .       .       111     110     10.49
4479    104.56  .       .       109     110     10.49
4480    104.58  .       .       117     110     10.49
4481    104.60  .       .       122     109     10.44
4482    104.62  .       .       101     108     10.39
4483    104.64  .       .       93      107     10.34
4484    104.66  .       .       111     105     10.25
4485    104.68  .       .       97      104     10.20
4486    104.70  .       .       97      102     10.10
4487    104.72  .       .       111     100     10.00
4488    104.74  .       .       88      98      9.90
4489    104.76  .       .       101     97      9.85
4490    104.78  .       .       97      95      9.75
4491    104.80  .       .       81      94      9.70
4492    104.82  .       .       85      93      9.64
4493    104.84  .       .       93      92      9.59
4494    104.86  .       .       76      92      9.59
4495    104.88  .       .       96      91      9.54
4496    104.90  .       .       89      91      9.54
4497    104.92  .       .       89      91      9.54
4498    104.94  .       .       93      91      9.54
4499    104.96  .       .       100     91      9.54
4500    104.98  .       .       93      92      9.59
4501    105.00  .       .       75      92      9.59
4502    105.02  .       .       80      92      9.59
4503    105.04  .       .       79      93      9.64
4504    105.06  .       .       94      94      9.70
4505    105.08  .       .       94      94      9.70
4506    105.10  .       .       101     96      9.80
4507    105.12  .       .       88      97      9.85
4508    105.14  .       .       100     99      9.95
4509    105.16  .       .       83      101     10.05
4510    105.18  .       .       91      103     10.15
4511    105.20  .       .       100     105     10.25
4512    105.22  .       .       124     108     10.39
4513    105.24  .       .       98      111     10.54
4514    105.26  .       .       125     113     10.63
4515    105.28  .       .       106     115     10.72
4516    105.30  .       .       123     117     10.82
4517    105.32  .       .       118     118     10.86
4518    105.34  .       .       106     119     10.91
4519    105.36  .       .       93      118     10.86
4520    105.38  .       .       102     117     10.82
4521    105.40  .       .       130     115     10.72
4522    105.42  .       .       97      113     10.63
4523    105.44  .       .       93      111     10.54
4524    105.46  .       .       112     109     10.44
4525    105.48  .       .       109     107     10.34
4526    105.50  .       .       88      105     10.25
4527    105.52  .       .       100     104     10.20
4528    105.54  .       .       93      102     10.10
4529    105.56  .       .       97      101     10.05
4530    105.58  .       .       96      101     10.05
4531    105.60  .       .       91      100     10.00
4532    105.62  .       .       88      100     10.00
4533    105.64  .       .       109     100     10.00
4534    105.66  .       .       85      100     10.00
4535    105.68  .       .       100     99      9.95
4536    105.70  .       .       100     98      9.90
4537    105.72  .       .       96      97      9.85
4538    105.74  .       .       106     96      9.80
4539    105.76  .       .       75      94      9.70
4540    105.78  .       .       92      92      9.59
4541    105.80  .       .       92      91      9.54
4542    105.82  .       .       93      89      9.43
4543    105.84  .       .       86      87      9.33
4544    105.86  .       .       77      85      9.22
4545    105.88  .       .       67      83      9.11
4546    105.90  .       .       72      82      9.06
4547    105.92  .       .       80      80      8.94
4548    105.94  .       .       57      79      8.89
4549    105.96  .       .       65      78      8.83
4550    105.98  .       .       84      77      8.77
4551    106.00  .       .       66      76      8.72
4552    106.02  .       .       85      75      8.66
4553    106.04  .       .       66      74      8.60
4554    106.06  .       .       57      73      8.54
4555    106.08  .       .       73      73      8.54
4556    106.10  .       .       64      72      8.49
4557    106.12  .       .       67      72      8.49
4558    106.14  .       .       60      71      8.43
4559    106.16  .       .       56      71      8.43
4560    106.18  .       .       68      71      8.43
4561    106.20  .       .       60      70      8.37
4562    106.22  .       .       54      70      8.37
4563    106.24  .       .       62      70      8.37
4564    106.26  .       .       76      70      8.37
4565    106.28  .       .       71      70      8.37
4566    106.30  .       .       68      69      8.31
4567    106.32  .       .       50      69      8.31
4568    106.34  .       .       50      69      8.31
4569    106.36  .       .       63      69      8.31
4570    106.38  .       .       67      69      8.31
4571    106.40  .       .       70      69      8.31
4572    106.42  .       .       56      69      8.31
4573    106.44  .       .       67      69      8.31
4574    106.46  .       .       57      69      8.31
4575    106.48  .       .       62      70      8.37
4576    106.50  .       .       59      70      8.37
4577    106.52  .       .       73      70      8.37
4578    106.54  .       .       69      70      8.37
4579    106.56  .       .       46      71      8.43
4580    106.58  .       .       76      71      8.43
4581    106.60  .       .       68      71      8.43
4582    106.62  .       .       69      72      8.49
4583    106.64  .       .       68      72      8.49
4584    106.66  .       .       61      72      8.49
4585    106.68  .       .       55      73      8.54
4586    106.70  .       .       73      73      8.54
4587    106.72  .       .       63      74      8.60
4588    106.74  .       .       61      74      8.60
4589    106.76  .       .       67      75      8.66
4590    106.78  .       .       59      75      8.66
4591    106.80  .       .       66      76      8.72
4592    106.82  .       .       74      77      8.77
4593    106.84  .       .       86      78      8.83
4594    106.86  .       .       69      79      8.89
4595    106.88  .       .       84      81      9.00
4596    106.90  .       .       83      82      9.06
4597    106.92  .       .       73      84      9.17
4598    106.94  .       .       94      85      9.22
4599    106.96  .       .       87      87      9.33
4600    106.98  .       .       88      88      9.38
4601    107.00  .       .       77      89      9.43
4602    107.02  .       .       96      91      9.54
4603    107.04  .       .       81      91      9.54
4604    107.06  .       .       78      92      9.59
4605    107.08  .       .       93      92      9.59
4606    107.10  .       .       91      91      9.54
4607    107.12  .       .       91      91      9.54
4608    107.14  .       .       81      90      9.49
4609    107.16  .       .       90      88      9.38
4610    107.18  .       .       89      87      9.33
4611    107.20  .       .       83      86      9.27
4612    107.22  .       .       77      85      9.22
4613    107.24  .       .       82      84      9.17
4614    107.26  .       .       69      84      9.17
4615    107.28  .       .       74      83      9.11
4616    107.30  .       .       72      83      9.11
4617    107.32  .       .       77      83      9.11
4618    107.34  .       .       82      83      9.11
4619    107.36  .       .       87      83      9.11
4620    107.38  .       .       86      83      9.11
4621    107.40  .       .       71      82      9.06
4622    107.42  .       .       79      82      9.06
4623    107.44  .       .       74      82      9.06
4624    107.46  .       .       75      82      9.06
4625    107.48  .       .       88      81      9.00
4626    107.50  .       .       77      80      8.94
4627    107.52  .       .       79      79      8.89
4628    107.54  .       .       75      78      8.83
4629    107.56  .       .       74      77      8.77
4630    107.58  .       .       88      77      8.77
4631    107.60  .       .       65      76      8.72
4632    107.62  .       .       84      75      8.66
4633    107.64  .       .       71      74      8.60
4634    107.66  .       .       59      73      8.54
4635    107.68  .       .       62      72      8.49
4636    107.70  .       .       56      72      8.49
4637    107.72  .       .       43      71      8.43
4638    107.74  .       .       56      71      8.43
4639    107.76  .       .       61      71      8.43
4640    107.78  .       .       65      70      8.37
4641    107.80  .       .       51      70      8.37
4642    107.82  .       .       70      70      8.37
4643    107.84  .       .       66      69      8.31
4644    107.86  .       .       50      69      8.31
4645    107.88  .       .       62      69      8.31
4646    107.90  .       .       59      69      8.31
4647    107.92  .       .       53      69      8.31
4648    107.94  .       .       54      69      8.31
4649    107.96  .       .       70      70      8.37
4650    107.98  .       .       70      70      8.37
4651    108.00  .       .       57      70      8.37
4652    108.02  .       .       52      70      8.37
4653    108.04  .       .       68      70      8.37
4654    108.06  .       .       65      70      8.37
4655    108.08  .       .       66      70      8.37
4656    108.10  .       .       79      70      8.37
4657    108.12  .       .       69      70      8.37
4658    108.14  .       .       71      70      8.37
4659    108.16  .       .       62      70      8.37
4660    108.18  .       .       65      70      8.37
4661    108.20  .       .       55      70      8.37
4662    108.22  .       .       64      69      8.31
4663    108.24  .       .       59      69      8.31
4664    108.26  .       .       68      69      8.31
4665    108.28  .       .       64      69      8.31
4666    108.30  .       .       60      68      8.25
4667    108.32  .       .       72      68      8.25
4668    108.34  .       .       54      68      8.25
4669    108.36  .       .       60      68      8.25
4670    108.38  .       .       70      68      8.25
4671    108.40  .       .       61      68      8.25
4672    108.42  .       .       61      68      8.25
4673    108.44  .       .       54      68      8.25
4674    108.46  .       .       47      68      8.25
4675    108.48  .       .       53      68      8.25
4676    108.50  .       .       57      68      8.25
4677    108.52  .       .       63      68      8.25
4678    108.54  .       .       74      67      8.19
4679    108.56  .       .       54      67      8.19
4680    108.58  .       .       48      67      8.19
4681    108.60  .       .       75      67      8.19
4682    108.62  .       .       55      67      8.19
4683    108.64  .       .       61      67      8.19
4684    108.66  .       .       65      66      8.12
4685    108.68  .       .       46      66      8.12
4686    108.70  .       .       55      66      8.12
4687    108.72  .       .       64      66      8.12
4688    108.74  .       .       60      66      8.12
4689    108.76  .       .       59      66      8.12
4690    108.78  .       .       49      66      8.12
4691    108.80  .       .       58      66      8.12
4692    108.82  .       .       70      66      8.12
4693    108.84  .       .       51      66      8.12
4694    108.86  .       .       67      66      8.12
4695    108.88  .       .       61      66      8.12
4696    108.90  .       .       64      66      8.12
4697    108.92  .       .       58      66      8.12
4698    108.94  .       .       57      66      8.12
4699    108.96  .       .       63      66      8.12
4700    108.98  .       .       66      66      8.12
4701    109.00  .       .       77      66      8.12
4702    109.02  .       .       60      66      8.12
4703    109.04  .       .       56      66      8.12
4704    109.06  .       .       60      66      8.12
4705    109.08  .       .       61      66      8.12
4706    109.10  .       .       56      66      8.12
4707    109.12  .       .       56      66      8.12
4708    109.14  .       .       55      66      8.12
4709    109.16  .       .       69      66      8.12
4710    109.18  .       .       51      67      8.19
4711    109.20  .       .       66      67      8.19
4712    109.22  .       .       55      67      8.19
4713    109.24  .       .       65      67      8.19
4714    109.26  .       .       46      67      8.19
4715    109.28  .       .       63      68      8.25
4716    109.30  .       .       48      68      8.25
4717    109.32  .       .       63      68      8.25
4718    109.34  .       .       64      68      8.25
4719    109.36  .       .       74      69      8.31
4720    109.38  .       .       66      69      8.31
4721    109.40  .       .       58      69      8.31
4722    109.42  .       .       60      70      8.37
4723    109.44  .       .       81      70      8.37
4724    109.46  .       .       71      71      8.43
4725    109.48  .       .       58      71      8.43
4726    109.50  .       .       77      72      8.49
4727    109.52  .       .       71      73      8.54
4728    109.54  .       .       73      73      8.54
4729    109.56  .       .       69      74      8.60
4730    109.58  .       .       83      75      8.66
4731    109.60  .       .       75      76      8.72
4732    109.62  .       .       66      77      8.77
4733    109.64  .       .       82      79      8.89
4734    109.66  .       .       86      80      8.94
4735    109.68  .       .       107     81      9.00
4736    109.70  .       .       81      83      9.11
4737    109.72  .       .       79      85      9.22
4738    109.74  .       .       100     86      9.27
4739    109.76  .       .       73      88      9.38
4740    109.78  .       .       85      90      9.49
4741    109.80  .       .       89      92      9.59
4742    109.82  .       .       85      94      9.70
4743    109.84  .       .       90      95      9.75
4744    109.86  .       .       95      96      9.80
4745    109.88  .       .       105     97      9.85
4746    109.90  .       .       116     97      9.85
4747    109.92  .       .       119     97      9.85
4748    109.94  .       .       122     97      9.85
4749    109.96  .       .       126     96      9.80
4750    109.98  .       .       109     96      9.80
4751    110.00  .       .       86      95      9.75
4752    110.02  .       .       91      94      9.70
4753    110.04  .       .       99      94      9.70
4754    110.06  .       .       95      93      9.64
4755    110.08  .       .       108     93      9.64
4756    110.10  .       .       85      93      9.64
4757    110.12  .       .       91      93      9.64
4758    110.14  .       .       110     94      9.70
4759    110.16  .       .       95      95      9.75
4760    110.18  .       .       82      96      9.80
4761    110.20  .       .       93      97      9.85
4762    110.22  .       .       88      98      9.90
4763    110.24  .       .       92      99      9.95
4764    110.26  .       .       112     101     10.05
4765    110.28  .       .       101     102     10.10
4766    110.30  .       .       127     103     10.15
4767    110.32  .       .       111     105     10.25
4768    110.34  .       .       115     106     10.30
4769    110.36  .       .       116     106     10.30
4770    110.38  .       .       111     107     10.34
4771    110.40  .       .       90      107     10.34
4772    110.42  .       .       106     107     10.34
4773    110.44  .       .       99      107     10.34
4774    110.46  .       .       89      106     10.30
4775    110.48  .       .       111     104     10.20
4776    110.50  .       .       124     103     10.15
4777    110.52  .       .       103     101     10.05
4778    110.54  .       .       91      99      9.95
4779    110.56  .       .       85      97      9.85
4780    110.58  .       .       96      96      9.80
4781    110.60  .       .       102     94      9.70
4782    110.62  .       .       94      93      9.64
4783    110.64  .       .       90      92      9.59
4784    110.66  .       .       117     91      9.54
4785    110.68  .       .       77      91      9.54
4786    110.70  .       .       88      91      9.54
4787    110.72  .       .       87      91      9.54
4788    110.74  .       .       86      91      9.54
4789    110.76  .       .       96      91      9.54
4790    110.78  .       .       86      91      9.54
4791    110.80  .       .       100     92      9.59
4792    110.82  .       .       99      92      9.59
4793    110.84  .       .       89      92      9.59
4794    110.86  .       .       98      92      9.59
4795    110.88  .       .       109     92      9.59
4796    110.90  .       .       100     92      9.59
4797    110.92  .       .       79      92      9.59
4798    110.94  .       .       96      91      9.54
4799    110.96  .       .       87      91      9.54
4800    110.98  .       .       105     91      9.54
4801    111.00  .       .       91      91      9.54
4802    111.02  .       .       89      91      9.54
4803    111.04  .       .       93      91      9.54
4804    111.06  .       .       99      91      9.54
4805    111.08  .       .       75      91      9.54
4806    111.10  .       .       85      91      9.54
4807    111.12  .       .       97      92      9.59
4808    111.14  .       .       95      92      9.59
4809    111.16  .       .       81      91      9.54
4810    111.18  .       .       82      91      9.54
4811    111.20  .       .       96      91      9.54
4812    111.22  .       .       101     90      9.49
4813    111.24  .       .       106     89      9.43
4814    111.26  .       .       86      88      9.38
4815    111.28  .       .       83      87      9.33
4816    111.30  .       .       76      87      9.33
4817    111.32  .       .       84      86      9.27
4818    111.34  .       .       84      85      9.22
4819    111.36  .       .       72      85      9.22
4820    111.38  .       .       74      84      9.17
4821    111.40  .       .       74      84      9.17
4822    111.42  .       .       90      84      9.17
4823    111.44  .       .       74      84      9.17
4824    111.46  .       .       78      84      9.17
4825    111.48  .       .       91      84      9.17
4826    111.50  .       .       90      84      9.17
4827    111.52  .       .       91      84      9.17
4828    111.54  .       .       59      84      9.17
4829    111.56  .       .       63      84      9.17
4830    111.58  .       .       92      84      9.17
4831    111.60  .       .       72      84      9.17
4832    111.62  .       .       77      84      9.17
4833    111.64  .       .       75      84      9.17
4834    111.66  .       .       77      83      9.11
4835    111.68  .       .       77      82      9.06
4836    111.70  .       .       82      82      9.06
4837    111.72  .       .       67      81      9.00
4838    111.74  .       .       71      80      8.94
4839    111.76  .       .       78      79      8.89
4840    111.78  .       .       74      78      8.83
4841    111.80  .       .       74      78      8.83
4842    111.82  .       .       77      77      8.77
4843    111.84  .       .       80      76      8.72
4844    111.86  .       .       70      75      8.66
4845    111.88  .       .       86      75      8.66
4846    111.90  .       .       57      74      8.60
4847    111.92  .       .       81      74      8.60
4848    111.94  .       .       61      73      8.54
4849    111.96  .       .       68      73      8.54
4850    111.98  .       .       74      73      8.54
4851    112.00  .       .       79      72      8.49
4852    112.02  .       .       76      72      8.49
4853    112.04  .       .       64      72      8.49
4854    112.06  .       .       61      72      8.49
4855    112.08  .       .       59      72      8.49
4856    112.10  .       .       57      71      8.43
4857    112.12  .       .       37      71      8.43
4858    112.14  .       .       64      71      8.43
4859    112.16  .       .       64      71      8.43
4860    112.18  .       .       63      71      8.43
4861    112.20  .       .       50      70      8.37
4862    112.22  .       .       68      70      8.37
4863    112.24  .       .       60      70      8.37
4864    112.26  .       .       74      69      8.31
4865    112.28  .       .       57      69      8.31
4866    112.30  .       .       80      69      8.31
4867    112.32  .       .       61      69      8.31
4868    112.34  .       .       65      69      8.31
4869    112.36  .       .       75      69      8.31
4870    112.38  .       .       64      68      8.25
4871    112.40  .       .       61      68      8.25
4872    112.42  .       .       65      68      8.25
4873    112.44  .       .       50      68      8.25
4874    112.46  .       .       64      68      8.25
4875    112.48  .       .       74      68      8.25
4876    112.50  .       .       64      68      8.25
4877    112.52  .       .       78      69      8.31
4878    112.54  .       .       65      69      8.31
4879    112.56  .       .       57      69      8.31
4880    112.58  .       .       64      69      8.31
4881    112.60  .       .       67      69      8.31
4882    112.62  .       .       70      70      8.37
4883    112.64  .       .       51      70      8.37
4884    112.66  .       .       54      70      8.37
4885    112.68  .       .       57      71      8.43
4886    112.70  .       .       61      71      8.43
4887    112.72  .       .       72      71      8.43
4888    112.74  .       .       66      72      8.49
4889    112.76  .       .       65      72      8.49
4890    112.78  .       .       56      72      8.49
4891    112.80  .       .       55      72      8.49
4892    112.82  .       .       62      73      8.54
4893    112.84  .       .       69      73      8.54
4894    112.86  .       .       80      73      8.54
4895    112.88  .       .       66      73      8.54
4896    112.90  .       .       75      73      8.54
4897    112.92  .       .       64      73      8.54
4898    112.94  .       .       80      73      8.54
4899    112.96  .       .       83      73      8.54
4900    112.98  .       .       71      73      8.54
4901    113.00  .       .       76      73      8.54
4902    113.02  .       .       62      72      8.49
4903    113.04  .       .       84      72      8.49
4904    113.06  .       .       61      72      8.49
4905    113.08  .       .       72      72      8.49
4906    113.10  .       .       67      72      8.49
4907    113.12  .       .       60      72      8.49
4908    113.14  .       .       64      72      8.49
4909    113.16  .       .       74      72      8.49
4910    113.18  .       .       75      72      8.49
4911    113.20  .       .       70      72      8.49
4912    113.22  .       .       73      72      8.49
4913    113.24  .       .       68      72      8.49
4914    113.26  .       .       51      71      8.43
4915    113.28  .       .       62      71      8.43
4916    113.30  .       .       63      71      8.43
4917    113.32  .       .       81      71      8.43
4918    113.34  .       .       70      71      8.43
4919    113.36  .       .       63      71      8.43
4920    113.38  .       .       72      70      8.37
4921    113.40  .       .       72      70      8.37
4922    113.42  .       .       71      70      8.37
4923    113.44  .       .       82      70      8.37
4924    113.46  .       .       62      70      8.37
4925    113.48  .       .       66      70      8.37
4926    113.50  .       .       75      70      8.37
4927    113.52  .       .       69      70      8.37
4928    113.54  .       .       80      70      8.37
4929    113.56  .       .       61      70      8.37
4930    113.58  .       .       75      70      8.37
4931    113.60  .       .       65      70      8.37
4932    113.62  .       .       70      70      8.37
4933    113.64  .       .       72      70      8.37
4934    113.66  .       .       77      70      8.37
4935    113.68  .       .       79      70      8.37
4936    113.70  .       .       71      70      8.37
4937    113.72  .       .       57      70      8.37
4938    113.74  .       .       64      70      8.37
4939    113.76  .       .       71      71      8.43
4940    113.78  .       .       86      71      8.43
4941    113.80  .       .       76      71      8.43
4942    113.82  .       .       72      71      8.43
4943    113.84  .       .       71      72      8.49
4944    113.86  .       .       79      72      8.49
4945    113.88  .       .       71      73      8.54
4946    113.90  .       .       68      73      8.54
4947    113.92  .       .       76      74      8.60
4948    113.94  .       .       84      74      8.60
4949    113.96  .       .       69      75      8.66
4950    113.98  .       .       98      76      8.72
4951    114.00  .       .       80      77      8.77
4952    114.02  .       .       74      78      8.83
4953    114.04  .       .       94      79      8.89
4954    114.06  .       .       78      80      8.94
4955    114.08  .       .       88      81      9.00
4956    114.10  .       .       96      83      9.11
4957    114.12  .       .       93      84      9.17
4958    114.14  .       .       83      86      9.27
4959    114.16  .       .       90      88      9.38
4960    114.18  .       .       78      90      9.49
4961    114.20  .       .       85      92      9.59
4962    114.22  .       .       91      94      9.70
4963    114.24  .       .       96      97      9.85
4964    114.26  .       .       101     99      9.95
4965    114.28  .       .       87      102     10.10
4966    114.30  .       .       102     104     10.20
4967    114.32  .       .       119     107     10.34
4968    114.34  .       .       136     109     10.44
4969    114.36  .       .       124     111     10.54
4970    114.38  .       .       135     113     10.63
4971    114.40  .       .       103     114     10.68
4972    114.42  .       .       104     116     10.77
4973    114.44  .       .       109     116     10.77
4974    114.46  .       .       118     117     10.82
4975    114.48  .       .       106     117     10.82
4976    114.50  .       .       111     117     10.82
4977    114.52  .       .       106     116     10.77
4978    114.54  .       .       116     116     10.77
4979    114.56  .       .       122     115     10.72
4980    114.58  .       .       118     114     10.68
4981    114.60  .       .       98      113     10.63
4982    114.62  .       .       128     112     10.58
4983    114.64  .       .       119     111     10.54
4984    114.66  .       .       99      111     10.54
4985    114.68  .       .       116     110     10.49
4986    114.70  .       .       109     110     10.49
4987    114.72  .       .       105     109     10.44
4988    114.74  .       .       100     109     10.44
4989    114.76  .       .       96      109     10.44
4990    114.78  .       .       118     109     10.44
4991    114.80  .       .       116     109     10.44
4992    114.82  .       .       92      109     10.44
4993    114.84  .       .       104     109     10.44
4994    114.86  .       .       120     109     10.44
4995    114.88  .       .       110     108     10.39
4996    114.90  .       .       110     108     10.39
4997    114.92  .       .       115     108     10.39
4998    114.94  .       .       89      108     10.39
4999    114.96  .       .       113     107     10.34
5000    114.98  .       .       105     107     10.34
5001    115.00  .       .       108     106     10.30
5002    115.02  .       .       119     105     10.25
5003    115.04  .       .       100     105     10.25
5004    115.06  .       .       99      104     10.20
5005    115.08  .       .       106     103     10.15
5006    115.10  .       .       98      102     10.10
5007    115.12  .       .       103     100     10.00
5008    115.14  .       .       94      99      9.95
5009    115.16  .       .       84      98      9.90
5010    115.18  .       .       98      97      9.85
5011    115.20  .       .       81      96      9.80
5012    115.22  .       .       122     95      9.75
5013    115.24  .       .       83      94      9.70
5014    115.26  .       .       102     93      9.64
5015    115.28  .       .       95      92      9.59
5016    115.30  .       .       104     92      9.59
5017    115.32  .       .       84      91      9.54
5018    115.34  .       .       84      91      9.54
5019    115.36  .       .       98      91      9.54
5020    115.38  .       .       88      91      9.54
5021    115.40  .       .       104     92      9.59
5022    115.42  .       .       96      92      9.59
5023    115.44  .       .       112     93      9.64
5024    115.46  .       .       84      94      9.70
5025    115.48  .       .       86      95      9.75
5026    115.50  .       .       95      96      9.80
5027    115.52  .       .       87      97      9.85
5028    115.54  .       .       117     98      9.90
5029    115.56  .       .       109     99      9.95
5030    115.58  .       .       103     101     10.05
5031    115.60  .       .       103     102     10.10
5032    115.62  .       .       110     103     10.15
5033    115.64  .       .       123     105     10.25
5034    115.66  .       .       88      106     10.30
5035    115.68  .       .       89      107     10.34
5036    115.70  .       .       93      108     10.39
5037    115.72  .       .       106     109     10.44
5038    115.74  .       .       117     110     10.49
5039    115.76  .       .       128     110     10.49
5040    115.78  .       .       119     110     10.49
5041    115.80  .       .       104     111     10.54
5042    115.82  .       .       114     111     10.54
5043    115.84  .       .       121     110     10.49
5044    115.86  .       .       92      110     10.49
5045    115.88  .       .       118     109     10.44
5046    115.90  .       .       123     108     10.39
5047    115.92  .       .       113     107     10.34
5048    115.94  .       .       100     107     10.34
5049    115.96  .       .       109     106     10.30
5050    115.98  .       .       120     105     10.25
5051    116.00  .       .       92      104     10.20
5052    116.02  .       .       117     103     10.15
5053    116.04  .       .       91      102     10.10
5054    116.06  .       .       83      101     10.05
5055    116.08  .       .       118     100     10.00
5056    116.10  .       .       83      100     10.00
5057    116.12  .       .       104     99      9.95
5058    116.14  .       .       113     98      9.90
5059    116.16  .       .       101     98      9.90
5060    116.18  .       .       120     97      9.85
5061    116.20  .       .       102     96      9.80
5062    116.22  .       .       93      96      9.80
5063    116.24  .       .       120     95      9.75
5064    116.26  .       .       99      94      9.70
5065    116.28  .       .       115     93      9.64
5066    116.30  .       .       101     93      9.64
5067    116.32  .       .       79      92      9.59
5068    116.34  .       .       102     91      9.54
5069    116.36  .       .       127     90      9.49
5070    116.38  .       .       99      89      9.43
5071    116.40  .       .       83      88      9.38
5072    116.42  .       .       94      87      9.33
5073    116.44  .       .       88      86      9.27
5074    116.46  .       .       87      85      9.22
5075    116.48  .       .       95      85      9.22
5076    116.50  .       .       92      84      9.17
5077    116.52  .       .       96      83      9.11
5078    116.54  .       .       95      82      9.06
5079    116.56  .       .       93      81      9.00
5080    116.58  .       .       84      81      9.00
5081    116.60  .       .       89      80      8.94
5082    116.62  .       .       98      79      8.89
5083    116.64  .       .       101     78      8.83
5084    116.66  .       .       101     78      8.83
5085    116.68  .       .       74      77      8.77
5086    116.70  .       .       91      77      8.77
5087    116.72  .       .       83      77      8.77
5088    116.74  .       .       91      76      8.72
5089    116.76  .       .       83      76      8.72
5090    116.78  .       .       77      76      8.72
5091    116.80  .       .       102     76      8.72
5092    116.82  .       .       75      77      8.77
5093    116.84  .       .       83      77      8.77
5094    116.86  .       .       89      77      8.77
5095    116.88  .       .       83      78      8.83
5096    116.90  .       .       103     78      8.83
5097    116.92  .       .       112     79      8.89
5098    116.94  .       .       78      80      8.94
5099    116.96  .       .       101     80      8.94
5100    116.98  .       .       88      81      9.00
5101    117.00  .       .       89      81      9.00
5102    117.02  .       .       97      81      9.00
5103    117.04  .       .       88      82      9.06
5104    117.06  .       .       104     82      9.06
5105    117.08  .       .       109     82      9.06
5106    117.10  .       .       94      81      9.00
5107    117.12  .       .       95      81      9.00
5108    117.14  .       .       89      81      9.00
5109    117.16  .       .       97      80      8.94
5110    117.18  .       .       91      80      8.94
5111    117.20  .       .       86      79      8.89
5112    117.22  .       .       93      78      8.83
5113    117.24  .       .       87      78      8.83
5114    117.26  .       .       82      77      8.77
5115    117.28  .       .       81      77      8.77
5116    117.30  .       .       98      76      8.72
5117    117.32  .       .       115     76      8.72
5118    117.34  .       .       89      75      8.66
5119    117.36  .       .       94      75      8.66
5120    117.38  .       .       81      74      8.60
5121    117.40  .       .       102     74      8.60
5122    117.42  .       .       76      74      8.60
5123    117.44  .       .       99      73      8.54
5124    117.46  .       .       86      73      8.54
5125    117.48  .       .       94      73      8.54
5126    117.50  .       .       84      72      8.49
5127    117.52  .       .       77      72      8.49
5128    117.54  .       .       104     71      8.43
5129    117.56  .       .       81      71      8.43
5130    117.58  .       .       84      70      8.37
5131    117.60  .       .       69      70      8.37
5132    117.62  .       .       86      69      8.31
5133    117.64  .       .       90      69      8.31
5134    117.66  .       .       75      68      8.25
5135    117.68  .       .       79      68      8.25
5136    117.70  .       .       72      67      8.19
5137    117.72  .       .       100     66      8.12
5138    117.74  .       .       95      66      8.12
5139    117.76  .       .       90      65      8.06
5140    117.78  .       .       63      64      8.00
5141    117.80  .       .       81      64      8.00
5142    117.82  .       .       79      63      7.94
5143    117.84  .       .       77      63      7.94
5144    117.86  .       .       70      62      7.87
5145    117.88  .       .       83      62      7.87
5146    117.90  .       .       81      61      7.81
5147    117.92  .       .       81      61      7.81
5148    117.94  .       .       80      60      7.75
5149    117.96  .       .       83      60      7.75
5150    117.98  .       .       70      60      7.75
5151    118.00  .       .       72      59      7.68



_refine_ls_goodness_of_fit_all
1.85
_chemical_formula_iupac
'Li Na2 Al F6'
_chemical_formula_structural
'Al F6 Li Na2'
_cell_formula_units_Z
2
_chemical_formula_moiety
'Al F6 Li Na2'
_cell_length_a
5.2863(4)
_cell_length_b
5.3603(4)
_cell_length_c
7.5025(6)
_chemical_formula_analytical
'Al F6 Li Na2'
_computing_molecular_graphics
'XP (Siemens, 19??)'
_chemical_formula_weight
193.892
_refine_ls_number_restraints
0
_computing_structure_refinement
'modified Rietveld program DBWM'
_refine_ls_number_constraints
0
_refine_ls_weighting_scheme
sigma
_symmetry_space_group_name_H-M
'P 1 21/n 1'
_cell_angle_gamma
90
_cell_measurement_temperature
293
_computing_data_reduction
'XDIG (local program)'
_computing_cell_refinement
'modified Rietveld program DBWM'
_refine_special_details
;
R_prof-backgr = 0.076
;
_diffrn_radiation_monochromator
graphite
_chemical_name_systematic
;
lithium disodium aluminium hexafluoride
;
_computing_structure_solution
'Patterson and Fourier synthesis (local program)'
_cell_volume
212.59
_refine_ls_structure_factor_coef
Fsqd
_refine_ls_hydrogen_treatment
none
_symmetry_cell_setting
monoclinic
_diffrn_ambient_temperature
295.0(10)
_chemical_name_common
'lithium sodium aluminium fluoride'
_chemical_melting_point
'decomp. 1053 K'
_computing_data_collection
'DRON-4 data collection software'
_diffrn_measurement_device_type
'DRON-4 powder diffractometer'
_cell_angle_alpha
90
_refine_ls_number_parameters
40
_chemical_formula_sum
'Al F6 Li Na2'
_refine_ls_matrix_type
full
_cell_angle_beta
90.005(2)
loop_
_symmetry_equiv_pos_site_id
_symmetry_equiv_pos_as_xyz
1 x,y,z
2 -x,-y,-z
3 1/2-x,y+1/2,1/2-z
4 1/2+x,1/2-y,1/2+z

loop_
_diffrn_radiation_type
_diffrn_radiation_wavelength
CuK\a 1.5418

loop_
_atom_type_symbol
_atom_type_description
_atom_type_scat_dispersion_real
_atom_type_scat_dispersion_imag
_atom_type_scat_source
F F 0.069 0.053 
;Cromer (1971). Int. Tables Vol. IV
;
Na Na 0.129 0.124 
;Cromer (1971). Int. Tables Vol. IV
;
Al Al 0.204 0.246 
;Cromer (1971). Int. Tables Vol. IV
;
Li Li 0.001 0.000 
;Cromer (1971). Int. Tables Vol. IV
;

loop_
_atom_site_label
_atom_site_fract_x
_atom_site_fract_y
_atom_site_fract_z
_atom_site_u_iso_or_equiv
_atom_site_thermal_displace_type
_atom_site_occupancy
_atom_site_type_symbol
Al 0.0000 0.0000 0.0000 0.0087(6) Uiso 1.00 Al
Li 0.0000 0.0000 0.5000 0.014(2) Uiso 1.00 Li
Na -0.0078(7) 0.4658(3) 0.2506(6) 0.022(6) Uiso 1.00 Na
F1 0.0733(6) 0.0191(4) 0.2328(9) 0.0170(10) Uiso 1.00 F
F2 0.2232(7) 0.3092(7) 0.5341(9) 0.0150(10) Uiso 1.00 F
F3 0.1941(6) 0.2730(6) 0.9632(7) 0.0140(10) Uiso 1.00 F

loop_
_geom_bond_atom_site_label_1
_geom_bond_atom_site_label_2
_geom_bond_site_symmetry_1
_geom_bond_site_symmetry_2
_geom_bond_distance
_geom_bond_publ_flag
Li F3 . 3_546 2.042(3) yes
Na F3 . 2_566 2.346(6) yes
Al F2 . 3_545 1.803(4) yes
Na F3 1_556 . 2.618(6) yes
Al F3 . 1_554 1.808(3) yes
Li F1 . . 2.044(7) yes
Al F1 . . 1.792(7) yes
Li F2 . 2_556 2.051(4) yes
Na F1 . 3_555 2.318(5) yes
Na F2 . . 2.592(7) yes
Na F1 . . 2.436(3) yes
Na F2 2_566 . 2.315(7) yes
Na F2 . 4_454 2.614(6) yes
Na F3 4_555 . 2.582(6) yes

loop_
_geom_angle_atom_site_label_1
_geom_angle_atom_site_label_2
_geom_angle_atom_site_label_3
_geom_angle_site_symmetry_1
_geom_angle_site_symmetry_2
_geom_angle_site_symmetry_3
_geom_angle
_geom_angle_publ_flag
F1 Al F2 . . 3_545 89.7(2) yes
F1 Al F2 . . 4_454 90.3(2) yes
F1 Al F3 . . 1_554 88.85(19) yes
F2 Al F3 4_454 . 1_554 91.3(2) yes
F1 Al F3 . . 2_556 91.15(19) yes
F2 Al F3 4_454 . 2_556 88.7(2) yes



# powder data simulated using PLATON:

data_I_simulated_

_publcif_pd_cifplot 'simulated 2021-03-25'

