data_BT
 
_pd_block_id    BT
#==============================================================================    
 
loop_
_pd_proc_point_id
_pd_proc_2theta_corrected   
_pd_proc_intensity_total
_pd_calc_intensity_total
_pd_proc_intensity_bkg_calc
 
     1    15.0632    327(18)           329.5712          329.5712                                                                   
     2    15.0832    336(18)           329.1797          329.1797                                                                   
     3    15.1032    352(18)           328.7887          328.7887                                                                   
     4    15.1232    368(18)           328.3982          328.3982                                                                   
     5    15.1432    318(18)           328.0081          328.0081                                                                   
     6    15.1632    335(18)           327.6183          327.6183                                                                   
     7    15.1832    330(18)           327.2292          327.2292                                                                   
     8    15.2032    331(18)           326.8405          326.8405                                                                   
     9    15.2232    346(18)           326.4522          326.4522                                                                   
    10    15.2432    334(18)           326.0643          326.0643                                                                   
    11    15.2632    326(18)           325.6770          325.6770                                                                   
    12    15.2832    345(18)           325.2901          325.2901                                                                   
    13    15.3032    317(18)           324.9037          324.9037                                                                   
    14    15.3232    330(18)           324.5176          324.5176                                                                   
    15    15.3432    322(18)           324.1321          324.1321                                                                   
    16    15.3632    329(18)           323.7470          323.7470                                                                   
    17    15.3832    338(18)           323.3623          323.3623                                                                   
    18    15.4032    325(18)           322.9782          322.9782                                                                   
    19    15.4232    347(18)           322.5945          322.5945                                                                   
    20    15.4432    349(18)           322.2112          322.2112                                                                   
    21    15.4632    327(18)           321.8283          321.8283                                                                   
    22    15.4832    323(18)           321.4460          321.4460                                                                   
    23    15.5032    323(18)           321.0641          321.0641                                                                   
    24    15.5232    319(18)           320.6826          320.6826                                                                   
    25    15.5432    299(18)           320.3015          320.3015                                                                   
    26    15.5632    318(18)           319.9210          319.9210                                                                   
    27    15.5832    344(18)           319.5409          319.5409                                                                   
    28    15.6032    326(18)           319.1611          319.1611                                                                   
    29    15.6232    316(18)           318.7819          318.7819                                                                   
    30    15.6432    337(18)           318.4032          318.4032                                                                   
    31    15.6632    322(18)           318.0249          318.0249                                                                   
    32    15.6832    319(18)           317.6469          317.6469                                                                   
    33    15.7032    328(18)           317.2695          317.2695                                                                   
    34    15.7232    303(18)           316.8925          316.8925                                                                   
    35    15.7432    313(18)           316.5159          316.5159                                                                   
    36    15.7632    303(18)           316.1399          316.1399                                                                   
    37    15.7832    310(18)           315.7643          315.7643                                                                   
    38    15.8032    297(18)           315.3891          315.3891                                                                   
    39    15.8232    312(18)           315.0142          315.0142                                                                   
    40    15.8432    327(18)           314.6400          314.6400                                                                   
    41    15.8632    298(18)           314.2661          314.2661                                                                   
    42    15.8832    326(18)           313.8927          313.8927                                                                   
    43    15.9032    314(18)           313.5196          313.5196                                                                   
    44    15.9232    304(18)           313.1471          313.1471                                                                   
    45    15.9432    308(18)           312.7751          312.7751                                                                   
    46    15.9632    291(18)           312.4033          312.4033                                                                   
    47    15.9832    288(18)           312.0321          312.0321                                                                   
    48    16.0032    304(18)           311.6613          311.6613                                                                   
    49    16.0232    316(18)           311.2910          311.2910                                                                   
    50    16.0432    296(18)           310.9211          310.9211                                                                   
    51    16.0632    275(18)           310.5516          310.5516                                                                   
    52    16.0832    309(18)           310.1827          310.1827                                                                   
    53    16.1032    292(18)           309.8141          309.8141                                                                   
    54    16.1232    267(18)           309.4459          309.4459                                                                   
    55    16.1432    302(18)           309.0782          309.0782                                                                   
    56    16.1632    283(18)           308.7110          308.7110                                                                   
    57    16.1832    291(18)           308.3441          308.3441                                                                   
    58    16.2032    323(18)           307.9777          307.9777                                                                   
    59    16.2232    278(18)           307.6118          307.6118                                                                   
    60    16.2432    288(18)           307.2463          307.2463                                                                   
    61    16.2632    303(18)           306.8813          306.8813                                                                   
    62    16.2832    292(18)           306.5165          306.5165                                                                   
    63    16.3032    289(17)           306.1523          306.1523                                                                   
    64    16.3232    288(17)           305.7885          305.7885                                                                   
    65    16.3432    292(17)           305.4252          305.4252                                                                   
    66    16.3632    290(17)           305.0623          305.0623                                                                   
    67    16.3832    280(17)           304.6998          304.6998                                                                   
    68    16.4032    310(17)           304.3378          304.3378                                                                   
    69    16.4232    303(17)           303.9761          303.9761                                                                   
    70    16.4432    282(17)           303.6150          303.6150                                                                   
    71    16.4632    299(17)           303.2542          303.2542                                                                   
    72    16.4832    300(17)           302.8938          302.8938                                                                   
    73    16.5032    277(17)           302.5340          302.5340                                                                   
    74    16.5232    288(17)           302.1746          302.1746                                                                   
    75    16.5432    308(17)           301.8156          301.8156                                                                   
    76    16.5632    256(17)           301.4569          301.4569                                                                   
    77    16.5832    286(17)           301.0988          301.0988                                                                   
    78    16.6032    302(17)           300.7410          300.7410                                                                   
    79    16.6232    313(17)           300.3838          300.3838                                                                   
    80    16.6432    281(17)           300.0268          300.0268                                                                   
    81    16.6632    307(17)           299.6704          299.6704                                                                   
    82    16.6832    290(17)           299.3144          299.3144                                                                   
    83    16.7032    302(17)           298.9588          298.9588                                                                   
    84    16.7232    267(17)           298.6036          298.6036                                                                   
    85    16.7432    283(17)           298.2489          298.2489                                                                   
    86    16.7632    277(17)           297.8945          297.8945                                                                   
    87    16.7832    289(17)           297.5406          297.5406                                                                   
    88    16.8032    299(17)           297.1871          297.1871                                                                   
    89    16.8232    298(17)           296.8341          296.8341                                                                   
    90    16.8432    295(17)           296.4815          296.4815                                                                   
    91    16.8632    275(17)           296.1293          296.1293                                                                   
    92    16.8832    299(17)           295.7775          295.7775                                                                   
    93    16.9032    284(17)           295.4262          295.4262                                                                   
    94    16.9232    274(17)           295.0753          295.0753                                                                   
    95    16.9432    294(17)           294.7247          294.7247                                                                   
    96    16.9632    281(17)           294.3747          294.3747                                                                   
    97    16.9832    274(17)           294.0250          294.0250                                                                   
    98    17.0032    283(17)           293.6758          293.6758                                                                   
    99    17.0232    280(17)           293.3269          293.3269                                                                   
   100    17.0432    274(17)           292.9785          292.9785                                                                   
   101    17.0632    284(17)           292.6306          292.6306                                                                   
   102    17.0832    299(17)           292.2830          292.2830                                                                   
   103    17.1032    263(17)           291.9358          291.9358                                                                   
   104    17.1232    295(17)           291.5891          291.5891                                                                   
   105    17.1432    289(17)           291.2427          291.2427                                                                   
   106    17.1632    277(17)           290.8969          290.8969                                                                   
   107    17.1832    288(17)           290.5515          290.5515                                                                   
   108    17.2032    295(17)           290.2064          290.2064                                                                   
   109    17.2232    290(17)           289.8617          289.8617                                                                   
   110    17.2432    289(17)           289.5175          289.5175                                                                   
   111    17.2632    274(17)           289.1737          289.1737                                                                   
   112    17.2832    297(17)           288.8304          288.8304                                                                   
   113    17.3032    277(17)           288.4873          288.4873                                                                   
   114    17.3232    286(17)           288.1448          288.1448                                                                   
   115    17.3432    283(17)           287.8027          287.8027                                                                   
   116    17.3632    283(17)           287.4610          287.4610                                                                   
   117    17.3832    279(17)           287.1196          287.1196                                                                   
   118    17.4032    271(17)           286.7787          286.7787                                                                   
   119    17.4232    285(17)           286.4383          286.4383                                                                   
   120    17.4432    261(17)           286.0982          286.0982                                                                   
   121    17.4632    278(17)           285.7585          285.7585                                                                   
   122    17.4832    281(17)           285.4193          285.4193                                                                   
   123    17.5032    311(17)           285.0804          285.0804                                                                   
   124    17.5232    274(17)           284.7419          284.7419                                                                   
   125    17.5432    282(17)           284.4039          284.4039                                                                   
   126    17.5632    296(17)           284.0663          284.0663                                                                   
   127    17.5832    268(17)           283.7292          283.7292                                                                   
   128    17.6032    271(17)           283.3923          283.3923                                                                   
   129    17.6232    269(17)           283.0560          283.0560                                                                   
   130    17.6432    278(17)           282.7200          282.7200                                                                   
   131    17.6632    301(17)           282.3845          282.3845                                                                   
   132    17.6832    271(17)           282.0492          282.0492                                                                   
   133    17.7032    261(17)           281.7145          281.7145                                                                   
   134    17.7232    284(17)           281.3802          281.3802                                                                   
   135    17.7432    266(17)           281.0463          281.0463                                                                   
   136    17.7632    302(17)           280.7127          280.7127                                                                   
   137    17.7832    266(17)           280.3796          280.3796                                                                   
   138    17.8032    280(17)           280.0469          280.0469                                                                   
   139    17.8232    289(17)           279.7146          279.7146                                                                   
   140    17.8432    282(17)           279.3826          279.3826                                                                   
   141    17.8632    286(17)           279.0511          279.0511                                                                   
   142    17.8832    302(17)           278.7201          278.7201                                                                   
   143    17.9032    310(17)           278.3894          278.3894                                                                   
   144    17.9232    293(17)           278.0590          278.0590                                                                   
   145    17.9432    285(17)           277.7292          277.7292                                                                   
   146    17.9632    276(17)           277.3996          277.3996                                                                   
   147    17.9832    257(17)           277.0706          277.0706                                                                   
   148    18.0032    284(17)           276.7419          276.7419                                                                   
   149    18.0232    300(17)           276.4136          276.4136                                                                   
   150    18.0432    294(17)           276.0857          276.0857                                                                   
   151    18.0632    289(17)           275.7582          275.7582                                                                   
   152    18.0832    287(17)           275.4312          275.4312                                                                   
   153    18.1032    308(17)           275.1046          275.1046                                                                   
   154    18.1232    272(17)           274.7782          274.7782                                                                   
   155    18.1432    286(17)           274.4523          274.4523                                                                   
   156    18.1632    281(17)           274.1269          274.1269                                                                   
   157    18.1832    262(17)           273.8018          273.8018                                                                   
   158    18.2032    276(17)           273.4771          273.4771                                                                   
   159    18.2232    313(17)           273.1528          273.1528                                                                   
   160    18.2432    284(17)           272.8289          272.8289                                                                   
   161    18.2632    277(17)           272.5054          272.5054                                                                   
   162    18.2832    270(16)           272.1823          272.1823                                                                   
   163    18.3032    289(16)           271.8596          271.8596                                                                   
   164    18.3232    290(16)           271.5373          271.5373                                                                   
   165    18.3432    287(16)           271.2153          271.2153                                                                   
   166    18.3632    274(16)           270.8939          270.8939                                                                   
   167    18.3832    278(16)           270.5728          270.5728                                                                   
   168    18.4032    270(16)           270.2521          270.2521                                                                   
   169    18.4232    294(16)           269.9316          269.9316                                                                   
   170    18.4432    265(16)           269.6117          269.6117                                                                   
   171    18.4632    257(16)           269.2922          269.2922                                                                   
   172    18.4832    287(16)           268.9730          268.9730                                                                   
   173    18.5032    239(16)           268.6543          268.6543                                                                   
   174    18.5232    251(16)           268.3359          268.3359                                                                   
   175    18.5432    267(16)           268.0179          268.0179                                                                   
   176    18.5632    276(16)           267.7003          267.7003                                                                   
   177    18.5832    275(16)           267.3831          267.3831                                                                   
   178    18.6032    257(16)           267.0663          267.0663                                                                   
   179    18.6232    256(16)           266.7500          266.7500                                                                   
   180    18.6432    270(16)           266.4339          266.4339                                                                   
   181    18.6632    248(16)           266.1183          266.1183                                                                   
   182    18.6832    242(16)           265.8030          265.8030                                                                   
   183    18.7032    261(16)           265.4881          265.4881                                                                   
   184    18.7232    264(16)           265.1737          265.1737                                                                   
   185    18.7432    267(16)           264.8596          264.8596                                                                   
   186    18.7632    294(16)           264.5460          264.5460                                                                   
   187    18.7832    269(16)           264.2325          264.2325                                                                   
   188    18.8032    270(16)           263.9197          263.9197                                                                   
   189    18.8232    271(16)           263.6071          263.6071                                                                   
   190    18.8432    248(16)           263.2950          263.2950                                                                   
   191    18.8632    266(16)           262.9832          262.9832                                                                   
   192    18.8832    254(16)           262.6718          262.6718                                                                   
   193    18.9032    264(16)           262.3609          262.3609                                                                   
   194    18.9232    261(16)           262.0503          262.0503                                                                   
   195    18.9432    248(16)           261.7400          261.7400                                                                   
   196    18.9632    269(16)           261.4302          261.4302                                                                   
   197    18.9832    254(16)           261.1208          261.1208                                                                   
   198    19.0032    249(16)           260.8117          260.8117                                                                   
   199    19.0232    249(16)           260.5030          260.5030                                                                   
   200    19.0432    275(16)           260.1947          260.1947                                                                   
   201    19.0632    244(16)           259.8868          259.8868                                                                   
   202    19.0832    249(16)           259.5793          259.5793                                                                   
   203    19.1032    246(16)           259.2720          259.2720                                                                   
   204    19.1232    247(16)           258.9653          258.9653                                                                   
   205    19.1432    255(16)           258.6588          258.6588                                                                   
   206    19.1632    260(16)           258.3528          258.3528                                                                   
   207    19.1832    237(16)           258.0472          258.0472                                                                   
   208    19.2032    262(16)           257.7419          257.7419                                                                   
   209    19.2232    257(16)           257.4370          257.4370                                                                   
   210    19.2432    258(16)           257.1325          257.1325                                                                   
   211    19.2632    229(16)           256.8284          256.8284                                                                   
   212    19.2832    255(16)           256.5247          256.5247                                                                   
   213    19.3032    265(16)           256.2213          256.2213                                                                   
   214    19.3232    239(16)           255.9183          255.9183                                                                   
   215    19.3432    236(16)           255.6157          255.6157                                                                   
   216    19.3632    246(16)           255.3135          255.3135                                                                   
   217    19.3832    239(16)           255.0116          255.0116                                                                   
   218    19.4032    246(16)           254.7101          254.7101                                                                   
   219    19.4232    226(16)           254.4090          254.4090                                                                   
   220    19.4432    238(16)           254.1083          254.1083                                                                   
   221    19.4632    249(16)           253.8079          253.8079                                                                   
   222    19.4832    263(16)           253.5079          253.5079                                                                   
   223    19.5032    244(16)           253.2083          253.2083                                                                   
   224    19.5232    241(16)           252.9090          252.9090                                                                   
   225    19.5432    245(16)           252.6102          252.6102                                                                   
   226    19.5632    240(16)           252.3117          252.3117                                                                   
   227    19.5832    241(16)           252.0136          252.0136                                                                   
   228    19.6032    233(16)           251.7158          251.7158                                                                   
   229    19.6232    245(16)           251.4184          251.4184                                                                   
   230    19.6432    233(16)           251.1214          251.1214                                                                   
   231    19.6632    250(16)           250.8248          250.8248                                                                   
   232    19.6832    239(16)           250.5285          250.5285                                                                   
   233    19.7032    250(16)           250.2326          250.2326                                                                   
   234    19.7232    259(16)           249.9371          249.9371                                                                   
   235    19.7432    262(16)           249.6420          249.6420                                                                   
   236    19.7632    250(16)           249.3472          249.3472                                                                   
   237    19.7832    228(16)           249.0527          249.0527                                                                   
   238    19.8032    234(16)           248.7587          248.7587                                                                   
   239    19.8232    233(16)           248.4651          248.4651                                                                   
   240    19.8432    242(16)           248.1717          248.1717                                                                   
   241    19.8632    235(16)           247.8788          247.8788                                                                   
   242    19.8832    250(16)           247.5861          247.5861                                                                   
   243    19.9032    233(16)           247.2940          247.2940                                                                   
   244    19.9232    256(16)           247.0021          247.0021                                                                   
   245    19.9432    241(16)           246.7107          246.7107                                                                   
   246    19.9632    230(16)           246.4195          246.4195                                                                   
   247    19.9832    227(16)           246.1288          246.1288                                                                   
   248    20.0032    233(16)           245.8384          245.8384                                                                   
   249    20.0232    228(16)           245.5484          245.5484                                                                   
   250    20.0432    247(16)           245.2587          245.2587                                                                   
   251    20.0632    272(16)           244.9694          244.9694                                                                   
   252    20.0832    248(16)           244.6805          244.6805                                                                   
   253    20.1032    254(16)           244.3920          244.3920                                                                   
   254    20.1232    243(16)           244.1037          244.1037                                                                   
   255    20.1432    230(16)           243.8159          243.8159                                                                   
   256    20.1632    232(16)           243.5285          243.5285                                                                   
   257    20.1832    256(16)           243.2414          243.2414                                                                   
   258    20.2032    246(16)           242.9546          242.9546                                                                   
   259    20.2232    219(16)           242.6682          242.6682                                                                   
   260    20.2432    226(16)           242.3822          242.3822                                                                   
   261    20.2632    227(16)           242.0965          242.0965                                                                   
   262    20.2832    249(16)           241.8112          241.8112                                                                   
   263    20.3032    231(16)           241.5263          241.5263                                                                   
   264    20.3232    240(16)           241.2417          241.2417                                                                   
   265    20.3432    241(16)           240.9574          240.9574                                                                   
   266    20.3632    238(16)           240.6736          240.6736                                                                   
   267    20.3832    238(16)           240.3901          240.3901                                                                   
   268    20.4032    227(15)           240.1069          240.1069                                                                   
   269    20.4232    240(15)           239.8241          239.8241                                                                   
   270    20.4432    254(15)           239.5417          239.5417                                                                   
   271    20.4632    256(15)           239.2596          239.2596                                                                   
   272    20.4832    222(15)           238.9778          238.9778                                                                   
   273    20.5032    231(15)           238.6965          238.6965                                                                   
   274    20.5232    243(15)           238.4155          238.4155                                                                   
   275    20.5432    225(15)           238.1348          238.1348                                                                   
   276    20.5632    235(15)           237.8545          237.8545                                                                   
   277    20.5832    240(15)           237.5745          237.5745                                                                   
   278    20.6032    231(15)           237.2950          237.2950                                                                   
   279    20.6232    242(15)           237.0157          237.0157                                                                   
   280    20.6432    215(15)           236.7368          236.7368                                                                   
   281    20.6632    234(15)           236.4583          236.4583                                                                   
   282    20.6832    237(15)           236.1801          236.1801                                                                   
   283    20.7032    236(15)           235.9023          235.9023                                                                   
   284    20.7232    225(15)           235.6248          235.6248                                                                   
   285    20.7432    243(15)           235.3477          235.3477                                                                   
   286    20.7632    238(15)           235.0709          235.0709                                                                   
   287    20.7832    229(15)           234.7945          234.7945                                                                   
   288    20.8032    243(15)           234.5184          234.5184                                                                   
   289    20.8232    230(15)           234.2427          234.2427                                                                   
   290    20.8432    242(15)           233.9674          233.9674                                                                   
   291    20.8632    235(15)           233.6923          233.6923                                                                   
   292    20.8832    215(15)           233.4177          233.4177                                                                   
   293    20.9032    228(15)           233.1434          233.1434                                                                   
   294    20.9232    236(15)           232.8694          232.8694                                                                   
   295    20.9432    229(15)           232.5957          232.5957                                                                   
   296    20.9632    230(15)           232.3225          232.3225                                                                   
   297    20.9832    232(15)           232.0496          232.0496                                                                   
   298    21.0032    218(15)           231.7770          231.7770                                                                   
   299    21.0232    222(15)           231.5047          231.5047                                                                   
   300    21.0432    232(15)           231.2329          231.2329                                                                   
   301    21.0632    224(15)           230.9613          230.9613                                                                   
   302    21.0832    239(15)           230.6901          230.6901                                                                   
   303    21.1032    219(15)           230.4193          230.4193                                                                   
   304    21.1232    247(15)           230.1488          230.1488                                                                   
   305    21.1432    237(15)           229.8786          229.8786                                                                   
   306    21.1632    234(15)           229.6088          229.6088                                                                   
   307    21.1832    196(15)           229.3394          229.3394                                                                   
   308    21.2032    244(15)           229.0703          229.0703                                                                   
   309    21.2232    239(15)           228.8014          228.8014                                                                   
   310    21.2432    251(15)           228.5330          228.5330                                                                   
   311    21.2632    243(15)           228.2650          228.2650                                                                   
   312    21.2832    237(15)           227.9972          227.9972                                                                   
   313    21.3032    242(15)           227.7298          227.7298                                                                   
   314    21.3232    272(15)           227.4627          227.4627                                                                   
   315    21.3432    242(15)           227.1960          227.1960                                                                   
   316    21.3632    236(15)           226.9296          226.9296                                                                   
   317    21.3832    244(15)           226.6636          226.6636                                                                   
   318    21.4032    275(15)           226.3979          226.3979                                                                   
   319    21.4232    240(15)           226.1326          226.1326                                                                   
   320    21.4432    246(15)           225.8675          225.8675                                                                   
   321    21.4632    246(15)           225.6028          225.6028                                                                   
   322    21.4832    260(15)           225.3385          225.3385                                                                   
   323    21.5032    254(15)           225.0745          225.0745                                                                   
   324    21.5232    266(15)           224.8108          224.8108                                                                   
   325    21.5432    235(15)           233.5889          224.5475                                                                   
   326    21.5632    258(15)           234.1109          224.2845                                                                   
   327    21.5832    268(16)           249.5063          224.0219                                                                   
   328    21.6032    270(16)           255.7813          223.7595                                                                   
   329    21.6232    246(16)           258.1004          223.4976                                                                   
   330    21.6432    293(16)           268.2211          223.2360                                                                   
   331    21.6632    264(16)           271.7509          222.9747                                                                   
   332    21.6832    299(17)           275.8151          222.7137                                                                   
   333    21.7032    308(17)           280.5371          222.4530                                                                   
   334    21.7232    325(17)           286.1042          222.1928                                                                   
   335    21.7432    321(17)           292.8362          221.9328                                                                   
   336    21.7632    360(17)           301.3338          221.6732                                                                   
   337    21.7832    374(18)           312.7493          221.4139                                                                   
   338    21.8032    421(18)           329.2141          221.1550                                                                   
   339    21.8232    449(19)           354.3344          220.8964                                                                   
   340    21.8432    499(20)           393.4961          220.6380                                                                   
   341    21.8632    595(21)           453.5561          220.3801                                                                   
   342    21.8832    676(23)           542.1767          220.1224                                                                   
   343    21.9032    801(26)           668.7767          219.8651                                                                   
   344    21.9232    981(29)           848.4351          219.6082                                                                   
   345    21.9432    1231(33)          1097.9019          219.3516                                                                  
   346    21.9632    1254(38)          1411.3776          219.0952                                                                  
   347    21.9832    1469(42)          1757.9980          218.8393                                                                  
   348    22.0032    1662(46)          2126.9819          218.5837                                                                  
   349    22.0232    1737(49)          2436.8325          218.3284                                                                  
   350    22.0432    1784(49)          2429.1794          218.0734                                                                  
   351    22.0632    1769(46)          2135.3582          217.8188                                                                  
   352    22.0832    1687(43)          1835.4662          217.5645                                                                  
   353    22.1032    1591(40)          1627.5568          217.3105                                                                  
   354    22.1232    1699(40)          1573.0537          217.0568                                                                  
   355    22.1432    1666(40)          1601.2677          216.8035                                                                  
   356    22.1632    1789(42)          1788.4722          216.5505                                                                  
   357    22.1832    1985(45)          2055.0044          216.2978                                                                  
   358    22.2032    2094(48)          2344.4287          216.0455                                                                  
   359    22.2232    2280(51)          2637.2180          215.7935                                                                  
   360    22.2432    2368(53)          2813.8506          215.5418                                                                  
   361    22.2632    2279(52)          2733.3330          215.2903                                                                  
   362    22.2832    2006(49)          2388.3848          215.0393                                                                  
   363    22.3032    1609(44)          1896.1388          214.7887                                                                  
   364    22.3232    1144(37)          1348.4514          214.5383                                                                  
   365    22.3432    854(29)           838.8209          214.2881                                                                   
   366    22.3632    569(23)           551.9084          214.0384                                                                   
   367    22.3832    423(19)           357.3645          213.7890                                                                   
   368    22.4032    354(15)           238.9024          213.5400                                                                   
   369    22.4232    328(15)           236.0456          213.2912                                                                   
   370    22.4432    292(15)           233.5629          213.0427                                                                   
   371    22.4632    284(15)           231.3920          212.7946                                                                   
   372    22.4832    262(15)           238.1763          212.5468                                                                   
   373    22.5032    233(16)           258.3152          212.2993                                                                   
   374    22.5232    246(16)           261.2656          212.0522                                                                   
   375    22.5432    218(17)           274.3241          211.8054                                                                   
   376    22.5632    235(17)           285.0478          211.5588                                                                   
   377    22.5832    231(17)           284.5571          211.3127                                                                   
   378    22.6032    260(17)           283.9912          211.0668                                                                   
   379    22.6232    250(17)           280.6655          210.8212                                                                   
   380    22.6432    228(17)           275.9689          210.5760                                                                   
   381    22.6632    224(16)           270.7995          210.3311                                                                   
   382    22.6832    204(16)           265.6744          210.0865                                                                   
   383    22.7032    237(16)           260.8543          209.8422                                                                   
   384    22.7232    230(16)           256.4424          209.5983                                                                   
   385    22.7432    227(16)           252.4559          209.3546                                                                   
   386    22.7632    220(16)           248.8698          209.1113                                                                   
   387    22.7832    221(16)           245.6443          208.8683                                                                   
   388    22.8032    223(16)           242.7364          208.6257                                                                   
   389    22.8232    207(15)           240.1057          208.3833                                                                   
   390    22.8432    208(15)           237.7162          208.1413                                                                   
   391    22.8632    213(15)           235.5370          207.8995                                                                   
   392    22.8832    224(15)           233.5422          207.6581                                                                   
   393    22.9032    199(15)           231.7091          207.4170                                                                   
   394    22.9232    226(15)           215.6491          207.1763                                                                   
   395    22.9432    205(15)           214.8925          206.9357                                                                   
   396    22.9632    216(15)           214.1820          206.6956                                                                   
   397    22.9832    210(14)           206.4558          206.4558                                                                   
   398    23.0032    212(14)           206.2163          206.2163                                                                   
   399    23.0232    208(14)           205.9771          205.9771                                                                   
   400    23.0432    216(14)           205.7382          205.7382                                                                   
   401    23.0632    206(14)           205.4996          205.4996                                                                   
   402    23.0832    208(14)           205.2613          205.2613                                                                   
   403    23.1032    208(14)           205.0234          205.0234                                                                   
   404    23.1232    210(14)           204.7857          204.7857                                                                   
   405    23.1432    204(14)           204.5484          204.5484                                                                   
   406    23.1632    192(14)           204.3114          204.3114                                                                   
   407    23.1832    217(14)           204.0747          204.0747                                                                   
   408    23.2032    183(14)           203.8383          203.8383                                                                   
   409    23.2232    205(14)           203.6022          203.6022                                                                   
   410    23.2432    209(14)           203.3664          203.3664                                                                   
   411    23.2632    193(14)           203.1309          203.1309                                                                   
   412    23.2832    204(14)           202.8958          202.8958                                                                   
   413    23.3032    190(14)           202.6609          202.6609                                                                   
   414    23.3232    217(14)           202.4264          202.4264                                                                   
   415    23.3432    219(14)           202.1922          202.1922                                                                   
   416    23.3632    187(14)           201.9583          201.9583                                                                   
   417    23.3832    210(14)           201.7246          201.7246                                                                   
   418    23.4032    212(14)           201.4913          201.4913                                                                   
   419    23.4232    197(14)           201.2584          201.2584                                                                   
   420    23.4432    186(14)           201.0256          201.0256                                                                   
   421    23.4632    200(14)           200.7933          200.7933                                                                   
   422    23.4832    189(14)           200.5612          200.5612                                                                   
   423    23.5032    202(14)           200.3294          200.3294                                                                   
   424    23.5232    201(14)           200.0979          200.0979                                                                   
   425    23.5432    213(14)           199.8668          199.8668                                                                   
   426    23.5632    207(14)           199.6360          199.6360                                                                   
   427    23.5832    215(14)           199.4054          199.4054                                                                   
   428    23.6032    188(14)           199.1752          199.1752                                                                   
   429    23.6232    196(14)           198.9452          198.9452                                                                   
   430    23.6432    197(14)           198.7156          198.7156                                                                   
   431    23.6632    201(14)           198.4863          198.4863                                                                   
   432    23.6832    187(14)           198.2572          198.2572                                                                   
   433    23.7032    196(14)           198.0285          198.0285                                                                   
   434    23.7232    204(14)           197.8001          197.8001                                                                   
   435    23.7432    193(14)           197.5720          197.5720                                                                   
   436    23.7632    195(14)           197.3442          197.3442                                                                   
   437    23.7832    206(14)           197.1167          197.1167                                                                   
   438    23.8032    206(14)           196.8895          196.8895                                                                   
   439    23.8232    215(14)           196.6626          196.6626                                                                   
   440    23.8432    209(14)           196.4359          196.4359                                                                   
   441    23.8632    211(14)           196.2096          196.2096                                                                   
   442    23.8832    188(14)           195.9836          195.9836                                                                   
   443    23.9032    206(14)           195.7579          195.7579                                                                   
   444    23.9232    198(14)           195.5325          195.5325                                                                   
   445    23.9432    189(14)           195.3074          195.3074                                                                   
   446    23.9632    184(14)           195.0826          195.0826                                                                   
   447    23.9832    199(14)           194.8581          194.8581                                                                   
   448    24.0032    202(14)           194.6339          194.6339                                                                   
   449    24.0232    185(14)           194.4100          194.4100                                                                   
   450    24.0432    195(14)           194.1863          194.1863                                                                   
   451    24.0632    220(14)           193.9630          193.9630                                                                   
   452    24.0832    190(14)           193.7400          193.7400                                                                   
   453    24.1032    181(14)           193.5173          193.5173                                                                   
   454    24.1232    198(14)           193.2948          193.2948                                                                   
   455    24.1432    190(14)           193.0727          193.0727                                                                   
   456    24.1632    192(14)           192.8509          192.8509                                                                   
   457    24.1832    190(14)           192.6293          192.6293                                                                   
   458    24.2032    185(14)           192.4081          192.4081                                                                   
   459    24.2232    190(14)           192.1871          192.1871                                                                   
   460    24.2432    179(14)           191.9665          191.9665                                                                   
   461    24.2632    198(14)           191.7461          191.7461                                                                   
   462    24.2832    187(14)           191.5261          191.5261                                                                   
   463    24.3032    204(14)           191.3063          191.3063                                                                   
   464    24.3232    195(14)           191.0868          191.0868                                                                   
   465    24.3432    184(14)           190.8676          190.8676                                                                   
   466    24.3632    194(14)           190.6487          190.6487                                                                   
   467    24.3832    177(14)           190.4301          190.4301                                                                   
   468    24.4032    166(14)           190.2119          190.2119                                                                   
   469    24.4232    184(14)           189.9938          189.9938                                                                   
   470    24.4432    177(14)           189.7761          189.7761                                                                   
   471    24.4632    182(14)           189.5587          189.5587                                                                   
   472    24.4832    193(14)           189.3415          189.3415                                                                   
   473    24.5032    191(14)           189.1247          189.1247                                                                   
   474    24.5232    169(14)           188.9081          188.9081                                                                   
   475    24.5432    203(14)           188.6919          188.6919                                                                   
   476    24.5632    182(14)           188.4759          188.4759                                                                   
   477    24.5832    179(14)           188.2602          188.2602                                                                   
   478    24.6032    194(14)           188.0448          188.0448                                                                   
   479    24.6232    185(14)           187.8296          187.8296                                                                   
   480    24.6432    203(14)           187.6148          187.6148                                                                   
   481    24.6632    192(14)           187.4003          187.4003                                                                   
   482    24.6832    182(14)           187.1861          187.1861                                                                   
   483    24.7032    198(14)           186.9721          186.9721                                                                   
   484    24.7232    173(14)           186.7584          186.7584                                                                   
   485    24.7432    192(14)           186.5450          186.5450                                                                   
   486    24.7632    176(14)           186.3320          186.3320                                                                   
   487    24.7832    200(14)           186.1191          186.1191                                                                   
   488    24.8032    200(14)           185.9066          185.9066                                                                   
   489    24.8232    171(14)           185.6944          185.6944                                                                   
   490    24.8432    164(14)           185.4824          185.4824                                                                   
   491    24.8632    201(14)           185.2707          185.2707                                                                   
   492    24.8832    190(14)           185.0594          185.0594                                                                   
   493    24.9032    192(14)           184.8483          184.8483                                                                   
   494    24.9232    200(14)           184.6375          184.6375                                                                   
   495    24.9432    170(14)           184.4269          184.4269                                                                   
   496    24.9632    193(14)           184.2167          184.2167                                                                   
   497    24.9832    205(14)           184.0067          184.0067                                                                   
   498    25.0032    197(14)           183.7971          183.7971                                                                   
   499    25.0232    212(14)           183.5876          183.5876                                                                   
   500    25.0432    176(14)           183.3785          183.3785                                                                   
   501    25.0632    196(14)           183.1697          183.1697                                                                   
   502    25.0832    165(14)           182.9611          182.9611                                                                   
   503    25.1032    190(14)           182.7529          182.7529                                                                   
   504    25.1232    169(14)           182.5449          182.5449                                                                   
   505    25.1432    155(14)           182.3372          182.3372                                                                   
   506    25.1632    175(13)           182.1298          182.1298                                                                   
   507    25.1832    189(13)           181.9226          181.9226                                                                   
   508    25.2032    169(13)           181.7158          181.7158                                                                   
   509    25.2232    171(13)           181.5092          181.5092                                                                   
   510    25.2432    178(13)           181.3029          181.3029                                                                   
   511    25.2632    165(13)           181.0969          181.0969                                                                   
   512    25.2832    191(13)           180.8911          180.8911                                                                   
   513    25.3032    168(13)           180.6856          180.6856                                                                   
   514    25.3232    184(13)           180.4804          180.4804                                                                   
   515    25.3432    164(13)           180.2756          180.2756                                                                   
   516    25.3632    186(13)           180.0709          180.0709                                                                   
   517    25.3832    170(13)           179.8665          179.8665                                                                   
   518    25.4032    173(13)           179.6625          179.6625                                                                   
   519    25.4232    176(13)           179.4587          179.4587                                                                   
   520    25.4432    173(13)           179.2551          179.2551                                                                   
   521    25.4632    177(13)           179.0519          179.0519                                                                   
   522    25.4832    163(13)           178.8490          178.8490                                                                   
   523    25.5032    169(13)           178.6463          178.6463                                                                   
   524    25.5232    162(13)           178.4438          178.4438                                                                   
   525    25.5432    172(13)           178.2417          178.2417                                                                   
   526    25.5632    173(13)           178.0398          178.0398                                                                   
   527    25.5832    176(13)           177.8383          177.8383                                                                   
   528    25.6032    142(13)           177.6369          177.6369                                                                   
   529    25.6232    163(13)           177.4359          177.4359                                                                   
   530    25.6432    162(13)           177.2351          177.2351                                                                   
   531    25.6632    168(13)           177.0346          177.0346                                                                   
   532    25.6832    154(13)           176.8344          176.8344                                                                   
   533    25.7032    165(13)           176.6344          176.6344                                                                   
   534    25.7232    156(13)           176.4348          176.4348                                                                   
   535    25.7432    168(13)           176.2354          176.2354                                                                   
   536    25.7632    170(13)           176.0362          176.0362                                                                   
   537    25.7832    185(13)           175.8374          175.8374                                                                   
   538    25.8032    166(13)           175.6387          175.6387                                                                   
   539    25.8232    156(13)           175.4404          175.4404                                                                   
   540    25.8432    158(13)           175.2424          175.2424                                                                   
   541    25.8632    165(13)           175.0446          175.0446                                                                   
   542    25.8832    170(13)           174.8471          174.8471                                                                   
   543    25.9032    145(13)           174.6498          174.6498                                                                   
   544    25.9232    158(13)           174.4529          174.4529                                                                   
   545    25.9432    167(13)           174.2562          174.2562                                                                   
   546    25.9632    152(13)           174.0597          174.0597                                                                   
   547    25.9832    174(13)           173.8636          173.8636                                                                   
   548    26.0032    167(13)           173.6677          173.6677                                                                   
   549    26.0232    151(13)           173.4721          173.4721                                                                   
   550    26.0432    159(13)           173.2767          173.2767                                                                   
   551    26.0632    166(13)           173.0816          173.0816                                                                   
   552    26.0832    164(13)           172.8868          172.8868                                                                   
   553    26.1032    165(13)           172.6923          172.6923                                                                   
   554    26.1232    164(13)           172.4979          172.4979                                                                   
   555    26.1432    159(13)           172.3039          172.3039                                                                   
   556    26.1632    166(13)           172.1102          172.1102                                                                   
   557    26.1832    167(13)           171.9167          171.9167                                                                   
   558    26.2032    164(13)           171.7235          171.7235                                                                   
   559    26.2232    166(13)           171.5305          171.5305                                                                   
   560    26.2432    169(13)           171.3378          171.3378                                                                   
   561    26.2632    157(13)           171.1454          171.1454                                                                   
   562    26.2832    163(13)           170.9532          170.9532                                                                   
   563    26.3032    164(13)           170.7613          170.7613                                                                   
   564    26.3232    161(13)           170.5697          170.5697                                                                   
   565    26.3432    183(13)           170.3783          170.3783                                                                   
   566    26.3632    174(13)           170.1872          170.1872                                                                   
   567    26.3832    165(13)           169.9964          169.9964                                                                   
   568    26.4032    178(13)           169.8058          169.8058                                                                   
   569    26.4232    156(13)           169.6154          169.6154                                                                   
   570    26.4432    165(13)           169.4254          169.4254                                                                   
   571    26.4632    169(13)           169.2356          169.2356                                                                   
   572    26.4832    178(13)           169.0461          169.0461                                                                   
   573    26.5032    176(13)           168.8568          168.8568                                                                   
   574    26.5232    173(13)           168.6678          168.6678                                                                   
   575    26.5432    170(13)           168.4790          168.4790                                                                   
   576    26.5632    156(13)           168.2905          168.2905                                                                   
   577    26.5832    175(13)           168.1023          168.1023                                                                   
   578    26.6032    163(13)           167.9144          167.9144                                                                   
   579    26.6232    155(13)           167.7266          167.7266                                                                   
   580    26.6432    165(13)           167.5392          167.5392                                                                   
   581    26.6632    160(13)           167.3520          167.3520                                                                   
   582    26.6832    148(13)           167.1651          167.1651                                                                   
   583    26.7032    153(13)           166.9783          166.9783                                                                   
   584    26.7232    154(13)           166.7919          166.7919                                                                   
   585    26.7432    140(13)           166.6058          166.6058                                                                   
   586    26.7632    164(13)           166.4199          166.4199                                                                   
   587    26.7832    148(13)           166.2342          166.2342                                                                   
   588    26.8032    147(13)           166.0489          166.0489                                                                   
   589    26.8232    152(13)           165.8637          165.8637                                                                   
   590    26.8432    160(13)           165.6789          165.6789                                                                   
   591    26.8632    165(13)           165.4942          165.4942                                                                   
   592    26.8832    161(13)           165.3099          165.3099                                                                   
   593    26.9032    147(13)           165.1258          165.1258                                                                   
   594    26.9232    146(13)           164.9420          164.9420                                                                   
   595    26.9432    162(13)           164.7583          164.7583                                                                   
   596    26.9632    155(13)           164.5750          164.5750                                                                   
   597    26.9832    164(13)           164.3919          164.3919                                                                   
   598    27.0032    144(13)           164.2091          164.2091                                                                   
   599    27.0232    156(13)           164.0265          164.0265                                                                   
   600    27.0432    165(13)           163.8442          163.8442                                                                   
   601    27.0632    151(13)           163.6621          163.6621                                                                   
   602    27.0832    144(13)           163.4803          163.4803                                                                   
   603    27.1032    145(13)           163.2987          163.2987                                                                   
   604    27.1232    156(13)           163.1174          163.1174                                                                   
   605    27.1432    152(13)           162.9363          162.9363                                                                   
   606    27.1632    148(13)           162.7556          162.7556                                                                   
   607    27.1832    136(13)           162.5750          162.5750                                                                   
   608    27.2032    165(13)           162.3947          162.3947                                                                   
   609    27.2232    155(13)           162.2146          162.2146                                                                   
   610    27.2432    147(13)           162.0349          162.0349                                                                   
   611    27.2632    154(13)           161.8553          161.8553                                                                   
   612    27.2832    151(13)           161.6760          161.6760                                                                   
   613    27.3032    141(13)           161.4969          161.4969                                                                   
   614    27.3232    150(13)           161.3182          161.3182                                                                   
   615    27.3432    162(13)           161.1396          161.1396                                                                   
   616    27.3632    137(13)           160.9613          160.9613                                                                   
   617    27.3832    155(13)           160.7833          160.7833                                                                   
   618    27.4032    140(13)           160.6055          160.6055                                                                   
   619    27.4232    154(13)           160.4279          160.4279                                                                   
   620    27.4432    134(13)           160.2506          160.2506                                                                   
   621    27.4632    144(13)           160.0735          160.0735                                                                   
   622    27.4832    153(13)           159.8968          159.8968                                                                   
   623    27.5032    152(13)           159.7202          159.7202                                                                   
   624    27.5232    141(13)           159.5439          159.5439                                                                   
   625    27.5432    145(13)           159.3678          159.3678                                                                   
   626    27.5632    158(13)           159.1920          159.1920                                                                   
   627    27.5832    149(13)           159.0164          159.0164                                                                   
   628    27.6032    157(13)           158.8411          158.8411                                                                   
   629    27.6232    156(13)           158.6660          158.6660                                                                   
   630    27.6432    136(13)           158.4912          158.4912                                                                   
   631    27.6632    147(13)           158.3166          158.3166                                                                   
   632    27.6832    135(13)           158.1422          158.1422                                                                   
   633    27.7032    149(13)           157.9681          157.9681                                                                   
   634    27.7232    147(13)           157.7943          157.7943                                                                   
   635    27.7432    148(13)           157.6207          157.6207                                                                   
   636    27.7632    126(13)           157.4473          157.4473                                                                   
   637    27.7832    137(13)           157.2742          157.2742                                                                   
   638    27.8032    158(13)           157.1013          157.1013                                                                   
   639    27.8232    139(13)           156.9286          156.9286                                                                   
   640    27.8432    173(13)           156.7562          156.7562                                                                   
   641    27.8632    150(13)           156.5841          156.5841                                                                   
   642    27.8832    162(13)           156.4121          156.4121                                                                   
   643    27.9032    166(12)           156.2405          156.2405                                                                   
   644    27.9232    188(12)           156.0691          156.0691                                                                   
   645    27.9432    186(12)           155.8979          155.8979                                                                   
   646    27.9632    168(12)           155.7269          155.7269                                                                   
   647    27.9832    181(12)           155.5562          155.5562                                                                   
   648    28.0032    190(12)           155.3858          155.3858                                                                   
   649    28.0232    205(12)           155.2156          155.2156                                                                   
   650    28.0432    206(12)           155.0456          155.0456                                                                   
   651    28.0632    209(12)           154.8758          154.8758                                                                   
   652    28.0832    210(12)           154.7063          154.7063                                                                   
   653    28.1032    208(12)           154.5371          154.5371                                                                   
   654    28.1232    202(12)           154.3680          154.3680                                                                   
   655    28.1432    186(12)           154.1993          154.1993                                                                   
   656    28.1632    175(12)           154.0307          154.0307                                                                   
   657    28.1832    175(12)           153.8624          153.8624                                                                   
   658    28.2032    184(12)           153.6943          153.6943                                                                   
   659    28.2232    168(12)           153.5265          153.5265                                                                   
   660    28.2432    168(12)           153.3589          153.3589                                                                   
   661    28.2632    172(12)           153.1915          153.1915                                                                   
   662    28.2832    169(12)           153.0244          153.0244                                                                   
   663    28.3032    179(12)           152.8575          152.8575                                                                   
   664    28.3232    188(12)           152.6909          152.6909                                                                   
   665    28.3432    191(12)           152.5245          152.5245                                                                   
   666    28.3632    183(12)           152.3583          152.3583                                                                   
   667    28.3832    205(12)           152.1924          152.1924                                                                   
   668    28.4032    187(12)           152.0267          152.0267                                                                   
   669    28.4232    194(12)           151.8612          151.8612                                                                   
   670    28.4432    183(12)           151.6960          151.6960                                                                   
   671    28.4632    177(12)           151.5310          151.5310                                                                   
   672    28.4832    196(12)           151.3662          151.3662                                                                   
   673    28.5032    166(12)           151.2016          151.2016                                                                   
   674    28.5232    183(12)           151.0374          151.0374                                                                   
   675    28.5432    191(12)           150.8733          150.8733                                                                   
   676    28.5632    184(12)           150.7094          150.7094                                                                   
   677    28.5832    161(12)           150.5459          150.5459                                                                   
   678    28.6032    189(12)           150.3825          150.3825                                                                   
   679    28.6232    175(12)           150.2193          150.2193                                                                   
   680    28.6432    163(12)           150.0564          150.0564                                                                   
   681    28.6632    166(12)           149.8938          149.8938                                                                   
   682    28.6832    182(12)           149.7314          149.7314                                                                   
   683    28.7032    156(12)           149.5691          149.5691                                                                   
   684    28.7232    169(12)           149.4072          149.4072                                                                   
   685    28.7432    172(12)           149.2454          149.2454                                                                   
   686    28.7632    175(12)           149.0839          149.0839                                                                   
   687    28.7832    170(12)           148.9226          148.9226                                                                   
   688    28.8032    144(12)           148.7616          148.7616                                                                   
   689    28.8232    143(12)           148.6008          148.6008                                                                   
   690    28.8432    162(12)           148.4402          148.4402                                                                   
   691    28.8632    154(12)           148.2798          148.2798                                                                   
   692    28.8832    162(12)           148.1197          148.1197                                                                   
   693    28.9032    158(12)           147.9598          147.9598                                                                   
   694    28.9232    161(12)           147.8001          147.8001                                                                   
   695    28.9432    143(12)           147.6406          147.6406                                                                   
   696    28.9632    171(12)           147.4814          147.4814                                                                   
   697    28.9832    160(12)           147.3224          147.3224                                                                   
   698    29.0032    135(12)           147.1636          147.1636                                                                   
   699    29.0232    144(12)           147.0051          147.0051                                                                   
   700    29.0432    160(12)           146.8468          146.8468                                                                   
   701    29.0632    146(12)           146.6887          146.6887                                                                   
   702    29.0832    142(12)           146.5308          146.5308                                                                   
   703    29.1032    147(12)           146.3732          146.3732                                                                   
   704    29.1232    134(12)           146.2158          146.2158                                                                   
   705    29.1432    149(12)           146.0586          146.0586                                                                   
   706    29.1632    143(12)           145.9017          145.9017                                                                   
   707    29.1832    159(12)           145.7449          145.7449                                                                   
   708    29.2032    167(12)           145.5885          145.5885                                                                   
   709    29.2232    151(12)           145.4321          145.4321                                                                   
   710    29.2432    171(12)           145.2761          145.2761                                                                   
   711    29.2632    161(12)           145.1203          145.1203                                                                   
   712    29.2832    167(12)           144.9647          144.9647                                                                   
   713    29.3032    147(12)           144.8093          144.8093                                                                   
   714    29.3232    155(12)           144.6541          144.6541                                                                   
   715    29.3432    152(12)           144.4992          144.4992                                                                   
   716    29.3632    148(12)           144.3445          144.3445                                                                   
   717    29.3832    155(12)           144.1900          144.1900                                                                   
   718    29.4032    154(12)           144.0357          144.0357                                                                   
   719    29.4232    125(12)           143.8817          143.8817                                                                   
   720    29.4432    150(12)           143.7278          143.7278                                                                   
   721    29.4632    136(12)           143.5742          143.5742                                                                   
   722    29.4832    134(12)           143.4209          143.4209                                                                   
   723    29.5032    142(12)           143.2677          143.2677                                                                   
   724    29.5232    146(12)           143.1147          143.1147                                                                   
   725    29.5432    138(12)           142.9620          142.9620                                                                   
   726    29.5632    125(12)           142.8096          142.8096                                                                   
   727    29.5832    128(12)           142.6573          142.6573                                                                   
   728    29.6032    133(12)           142.5052          142.5052                                                                   
   729    29.6232    140(12)           142.3534          142.3534                                                                   
   730    29.6432    131(12)           142.2018          142.2018                                                                   
   731    29.6632    131(12)           142.0504          142.0504                                                                   
   732    29.6832    144(12)           141.8992          141.8992                                                                   
   733    29.7032    128(12)           141.7482          141.7482                                                                   
   734    29.7232    130(12)           141.5975          141.5975                                                                   
   735    29.7432    133(12)           141.4470          141.4470                                                                   
   736    29.7632    144(12)           141.2966          141.2966                                                                   
   737    29.7832    133(12)           141.1465          141.1465                                                                   
   738    29.8032    132(12)           140.9966          140.9966                                                                   
   739    29.8232    136(12)           140.8470          140.8470                                                                   
   740    29.8432    137(12)           140.6976          140.6976                                                                   
   741    29.8632    133(12)           140.5483          140.5483                                                                   
   742    29.8832    130(12)           140.3993          140.3993                                                                   
   743    29.9032    140(12)           140.2505          140.2505                                                                   
   744    29.9232    122(12)           140.1020          140.1020                                                                   
   745    29.9432    141(12)           139.9536          139.9536                                                                   
   746    29.9632    149(12)           139.8055          139.8055                                                                   
   747    29.9832    131(12)           139.6575          139.6575                                                                   
   748    30.0032    132(12)           139.5098          139.5098                                                                   
   749    30.0232    144(12)           139.3623          139.3623                                                                   
   750    30.0432    121(12)           139.2150          139.2150                                                                   
   751    30.0632    123(12)           139.0680          139.0680                                                                   
   752    30.0832    145(12)           138.9211          138.9211                                                                   
   753    30.1032    142(12)           138.7745          138.7745                                                                   
   754    30.1232    126(12)           138.6280          138.6280                                                                   
   755    30.1432    120(12)           138.4818          138.4818                                                                   
   756    30.1632    138(12)           138.3358          138.3358                                                                   
   757    30.1832    144(12)           138.1900          138.1900                                                                   
   758    30.2032    128(12)           138.0444          138.0444                                                                   
   759    30.2232    138(12)           137.8991          137.8991                                                                   
   760    30.2432    134(12)           137.7539          137.7539                                                                   
   761    30.2632    153(12)           137.6090          137.6090                                                                   
   762    30.2832    145(12)           137.4642          137.4642                                                                   
   763    30.3032    151(12)           137.3197          137.3197                                                                   
   764    30.3232    138(12)           137.1754          137.1754                                                                   
   765    30.3432    149(12)           137.0313          137.0313                                                                   
   766    30.3632    168(12)           136.8875          136.8875                                                                   
   767    30.3832    175(12)           136.7438          136.7438                                                                   
   768    30.4032    165(12)           136.6003          136.6003                                                                   
   769    30.4232    182(12)           136.4570          136.4570                                                                   
   770    30.4432    189(12)           136.3140          136.3140                                                                   
   771    30.4632    193(12)           136.1712          136.1712                                                                   
   772    30.4832    208(12)           136.0285          136.0285                                                                   
   773    30.5032    206(12)           135.8861          135.8861                                                                   
   774    30.5232    208(12)           135.7439          135.7439                                                                   
   775    30.5432    216(12)           135.6019          135.6019                                                                   
   776    30.5632    220(12)           135.4601          135.4601                                                                   
   777    30.5832    178(12)           135.3185          135.3185                                                                   
   778    30.6032    240(12)           135.1771          135.1771                                                                   
   779    30.6232    217(12)           135.0359          135.0359                                                                   
   780    30.6432    219(12)           134.8950          134.8950                                                                   
   781    30.6632    214(12)           134.7542          134.7542                                                                   
   782    30.6832    211(12)           134.6137          134.6137                                                                   
   783    30.7032    226(12)           134.4733          134.4733                                                                   
   784    30.7232    216(12)           134.3332          134.3332                                                                   
   785    30.7432    212(12)           134.1932          134.1932                                                                   
   786    30.7632    225(12)           134.0535          134.0535                                                                   
   787    30.7832    225(12)           133.9140          133.9140                                                                   
   788    30.8032    216(12)           133.7746          133.7746                                                                   
   789    30.8232    226(12)           133.6355          133.6355                                                                   
   790    30.8432    231(12)           133.4966          133.4966                                                                   
   791    30.8632    207(12)           133.3579          133.3579                                                                   
   792    30.8832    233(12)           133.2194          133.2194                                                                   
   793    30.9032    230(12)           133.0811          133.0811                                                                   
   794    30.9232    254(14)           207.5554          132.9430                                                                   
   795    30.9432    242(15)           212.7144          132.8051                                                                   
   796    30.9632    251(15)           218.4559          132.6675                                                                   
   797    30.9832    262(15)           224.8682          132.5299                                                                   
   798    31.0032    255(16)           269.3252          132.3927                                                                   
   799    31.0232    258(17)           280.0674          132.2556                                                                   
   800    31.0432    289(17)           292.1604          132.1187                                                                   
   801    31.0632    306(17)           305.8401          131.9820                                                                   
   802    31.0832    304(18)           321.4019          131.8456                                                                   
   803    31.1032    358(18)           339.2350          131.7093                                                                   
   804    31.1232    326(19)           359.8705          131.5733                                                                   
   805    31.1432    366(20)           384.0951          131.4374                                                                   
   806    31.1632    392(20)           413.1552          131.3017                                                                   
   807    31.1832    444(22)           490.7048          131.1662                                                                   
   808    31.2032    492(23)           540.7327          131.0310                                                                   
   809    31.2232    602(25)           607.5154          130.8959                                                                   
   810    31.2432    707(27)           719.4562          130.7610                                                                   
   811    31.2632    866(29)           853.4709          130.6264                                                                   
   812    31.2832    1155(32)          1045.3862          130.4919                                                                  
   813    31.3032    1397(36)          1316.7642          130.3576                                                                  
   814    31.3232    1846(41)          1690.4490          130.2236                                                                  
   815    31.3432    2300(47)          2189.8928          130.0897                                                                  
   816    31.3632    3092(53)          2843.2505          129.9560                                                                  
   817    31.3832    4254(61)          3690.8093          129.8225                                                                  
   818    31.4032    5737(69)          4778.2148          129.6893                                                                  
   819    31.4232    7117(78)          6126.0444          129.5562                                                                  
   820    31.4432    9008(88)          7720.3398          129.4233                                                                  
   821    31.4632    10772(98)          9568.6846          129.2906                                                                 
   822    31.4832    12463(108)         11623.7246          129.1581                                                                
   823    31.5032    12767(115)         13280.0332          129.0258                                                                
   824    31.5232    12461(116)         13406.1582          128.8937                                                                
   825    31.5432    12038(110)         12063.5830          128.7618                                                                
   826    31.5632    11157(103)         10575.8535          128.6302                                                                
   827    31.5832    10229(98)          9656.8457          128.4986                                                                 
   828    31.6032    9353(95)          8990.1689          128.3673                                                                  
   829    31.6232    9274(92)          8385.2666          128.2362                                                                  
   830    31.6432    8460(91)          8263.9639          128.1053                                                                  
   831    31.6632    7518(91)          8210.1309          127.9746                                                                  
   832    31.6832    6286(86)          7357.4814          127.8440                                                                  
   833    31.7032    5492(76)          5840.3726          127.7137                                                                  
   834    31.7232    4475(68)          4625.0908          127.5835                                                                  
   835    31.7432    3487(62)          3881.0417          127.4536                                                                  
   836    31.7632    2700(56)          3084.3589          127.3239                                                                  
   837    31.7832    1864(46)          2153.0393          127.1943                                                                  
   838    31.8032    1303(36)          1288.3878          127.0649                                                                  
   839    31.8232    934(28)           793.1818          126.9358                                                                   
   840    31.8432    683(25)           615.7159          126.8068                                                                   
   841    31.8632    559(25)           604.3678          126.6780                                                                   
   842    31.8832    475(24)           590.0479          126.5494                                                                   
   843    31.9032    437(24)           581.7355          126.4210                                                                   
   844    31.9232    382(24)           573.4547          126.2928                                                                   
   845    31.9432    379(24)           553.2601          126.1648                                                                   
   846    31.9632    326(23)           524.6135          126.0369                                                                   
   847    31.9832    298(22)           492.1010          125.9093                                                                   
   848    32.0032    287(21)           459.4348          125.7819                                                                   
   849    32.0232    261(21)           428.8438          125.6546                                                                   
   850    32.0432    251(20)           401.2934          125.5276                                                                   
   851    32.0632    251(19)           376.9323          125.4007                                                                   
   852    32.0832    246(19)           355.5334          125.2740                                                                   
   853    32.1032    215(18)           336.7294          125.1475                                                                   
   854    32.1232    200(16)           251.5816          125.0212                                                                   
   855    32.1432    200(16)           241.1148          124.8951                                                                   
   856    32.1632    191(15)           231.8776          124.7691                                                                   
   857    32.1832    178(12)           150.3159          124.6434                                                                   
   858    32.2032    197(12)           148.0109          124.5179                                                                   
   859    32.2232    190(12)           145.9710          124.3925                                                                   
   860    32.2432    177(12)           144.1553          124.2673                                                                   
   861    32.2632    179(11)           124.1423          124.1423                                                                   
   862    32.2832    186(11)           124.0175          124.0175                                                                   
   863    32.3032    183(11)           123.8930          123.8930                                                                   
   864    32.3232    186(11)           123.7685          123.7685                                                                   
   865    32.3432    194(11)           123.6443          123.6443                                                                   
   866    32.3632    170(11)           123.5202          123.5202                                                                   
   867    32.3832    166(11)           123.3964          123.3964                                                                   
   868    32.4032    160(11)           123.2727          123.2727                                                                   
   869    32.4232    173(11)           123.1492          123.1492                                                                   
   870    32.4432    161(11)           123.0259          123.0259                                                                   
   871    32.4632    161(11)           122.9028          122.9028                                                                   
   872    32.4832    159(11)           122.7799          122.7799                                                                   
   873    32.5032    166(11)           122.6571          122.6571                                                                   
   874    32.5232    155(11)           122.5345          122.5345                                                                   
   875    32.5432    149(11)           122.4122          122.4122                                                                   
   876    32.5632    171(11)           122.2900          122.2900                                                                   
   877    32.5832    147(11)           122.1680          122.1680                                                                   
   878    32.6032    162(11)           122.0462          122.0462                                                                   
   879    32.6232    138(11)           121.9245          121.9245                                                                   
   880    32.6432    142(11)           121.8031          121.8031                                                                   
   881    32.6632    151(11)           121.6818          121.6818                                                                   
   882    32.6832    144(11)           121.5607          121.5607                                                                   
   883    32.7032    142(11)           121.4399          121.4399                                                                   
   884    32.7232    138(11)           121.3191          121.3191                                                                   
   885    32.7432    145(11)           121.1986          121.1986                                                                   
   886    32.7632    162(11)           121.0782          121.0782                                                                   
   887    32.7832    134(11)           120.9581          120.9581                                                                   
   888    32.8032    140(11)           120.8381          120.8381                                                                   
   889    32.8232    137(11)           120.7183          120.7183                                                                   
   890    32.8432    119(11)           120.5986          120.5986                                                                   
   891    32.8632    143(11)           120.4792          120.4792                                                                   
   892    32.8832    150(11)           120.3599          120.3599                                                                   
   893    32.9032    141(11)           120.2409          120.2409                                                                   
   894    32.9232    131(11)           120.1219          120.1219                                                                   
   895    32.9432    127(11)           120.0032          120.0032                                                                   
   896    32.9632    123(11)           119.8847          119.8847                                                                   
   897    32.9832    120(11)           119.7663          119.7663                                                                   
   898    33.0032    134(11)           119.6481          119.6481                                                                   
   899    33.0232    123(11)           119.5301          119.5301                                                                   
   900    33.0432    141(11)           119.4123          119.4123                                                                   
   901    33.0632    129(11)           119.2947          119.2947                                                                   
   902    33.0832    118(11)           119.1772          119.1772                                                                   
   903    33.1032    120(11)           119.0599          119.0599                                                                   
   904    33.1232    132(11)           118.9428          118.9428                                                                   
   905    33.1432    111(11)           118.8259          118.8259                                                                   
   906    33.1632    120(11)           118.7091          118.7091                                                                   
   907    33.1832    129(11)           118.5926          118.5926                                                                   
   908    33.2032    117(11)           118.4762          118.4762                                                                   
   909    33.2232    127(11)           118.3600          118.3600                                                                   
   910    33.2432    114(11)           118.2439          118.2439                                                                   
   911    33.2632    130(11)           118.1280          118.1280                                                                   
   912    33.2832    127(11)           118.0124          118.0124                                                                   
   913    33.3032    131(11)           117.8968          117.8968                                                                   
   914    33.3232    120(11)           117.7815          117.7815                                                                   
   915    33.3432    110(11)           117.6663          117.6663                                                                   
   916    33.3632    111(11)           117.5514          117.5514                                                                   
   917    33.3832    117(11)           117.4366          117.4366                                                                   
   918    33.4032    112(11)           117.3219          117.3219                                                                   
   919    33.4232    114(11)           117.2075          117.2075                                                                   
   920    33.4432    112(11)           117.0932          117.0932                                                                   
   921    33.4632    123(11)           116.9791          116.9791                                                                   
   922    33.4832    113(11)           116.8652          116.8652                                                                   
   923    33.5032    125(11)           116.7514          116.7514                                                                   
   924    33.5232    116(11)           116.6378          116.6378                                                                   
   925    33.5432    115(11)           116.5244          116.5244                                                                   
   926    33.5632    115(11)           116.4112          116.4112                                                                   
   927    33.5832    108(11)           116.2981          116.2981                                                                   
   928    33.6032    130(11)           116.1852          116.1852                                                                   
   929    33.6232    102(11)           116.0725          116.0725                                                                   
   930    33.6432    115(11)           115.9600          115.9600                                                                   
   931    33.6632    119(11)           115.8476          115.8476                                                                   
   932    33.6832    115(11)           115.7354          115.7354                                                                   
   933    33.7032    121(11)           115.6234          115.6234                                                                   
   934    33.7232    107(11)           115.5115          115.5115                                                                   
   935    33.7432    126(11)           115.3998          115.3998                                                                   
   936    33.7632    116(11)           115.2883          115.2883                                                                   
   937    33.7832    108(11)           115.1770          115.1770                                                                   
   938    33.8032    126(11)           115.0658          115.0658                                                                   
   939    33.8232    110(11)           114.9548          114.9548                                                                   
   940    33.8432    115(11)           114.8440          114.8440                                                                   
   941    33.8632    123(11)           114.7334          114.7334                                                                   
   942    33.8832    118(11)           114.6229          114.6229                                                                   
   943    33.9032    121(11)           114.5125          114.5125                                                                   
   944    33.9232    107(11)           114.4024          114.4024                                                                   
   945    33.9432    117(11)           114.2924          114.2924                                                                   
   946    33.9632    111(11)           114.1826          114.1826                                                                   
   947    33.9832    105(11)           114.0730          114.0730                                                                   
   948    34.0032    108(11)           113.9635          113.9635                                                                   
   949    34.0232    107(11)           113.8542          113.8542                                                                   
   950    34.0432    110(11)           113.7451          113.7451                                                                   
   951    34.0632    101(11)           113.6361          113.6361                                                                   
   952    34.0832    109(11)           113.5274          113.5274                                                                   
   953    34.1032    106(11)           113.4187          113.4187                                                                   
   954    34.1232    105(11)           113.3103          113.3103                                                                   
   955    34.1432    111(11)           113.2020          113.2020                                                                   
   956    34.1632    106(11)           113.0938          113.0938                                                                   
   957    34.1832    97(11)           112.9859          112.9859                                                                    
   958    34.2032    101(11)           112.8781          112.8781                                                                   
   959    34.2232    108(11)           112.7705          112.7705                                                                   
   960    34.2432    104(11)           112.6630          112.6630                                                                   
   961    34.2632    110(11)           112.5557          112.5557                                                                   
   962    34.2832    103(11)           112.4486          112.4486                                                                   
   963    34.3032    104(11)           112.3417          112.3417                                                                   
   964    34.3232    122(11)           112.2349          112.2349                                                                   
   965    34.3432    106(11)           112.1283          112.1283                                                                   
   966    34.3632    109(11)           112.0218          112.0218                                                                   
   967    34.3832    93(11)           111.9155          111.9155                                                                    
   968    34.4032    99(11)           111.8094          111.8094                                                                    
   969    34.4232    99(11)           111.7034          111.7034                                                                    
   970    34.4432    117(11)           111.5976          111.5976                                                                   
   971    34.4632    101(11)           111.4920          111.4920                                                                   
   972    34.4832    95(11)           111.3865          111.3865                                                                    
   973    34.5032    103(11)           111.2812          111.2812                                                                   
   974    34.5232    104(11)           111.1760          111.1760                                                                   
   975    34.5432    98(11)           111.0711          111.0711                                                                    
   976    34.5632    101(11)           110.9662          110.9662                                                                   
   977    34.5832    95(11)           110.8616          110.8616                                                                    
   978    34.6032    92(11)           110.7571          110.7571                                                                    
   979    34.6232    104(11)           110.6528          110.6528                                                                   
   980    34.6432    88(11)           110.5486          110.5486                                                                    
   981    34.6632    89(11)           110.4446          110.4446                                                                    
   982    34.6832    105(11)           110.3408          110.3408                                                                   
   983    34.7032    97(10)           110.2371          110.2371                                                                    
   984    34.7232    93(10)           110.1336          110.1336                                                                    
   985    34.7432    99(10)           110.0302          110.0302                                                                    
   986    34.7632    103(10)           109.9270          109.9270                                                                   
   987    34.7832    92(10)           109.8240          109.8240                                                                    
   988    34.8032    97(10)           109.7211          109.7211                                                                    
   989    34.8232    101(10)           109.6184          109.6184                                                                   
   990    34.8432    111(10)           109.5158          109.5158                                                                   
   991    34.8632    96(10)           109.4135          109.4135                                                                    
   992    34.8832    104(10)           109.3112          109.3112                                                                   
   993    34.9032    97(10)           109.2091          109.2091                                                                    
   994    34.9232    111(10)           109.1072          109.1072                                                                   
   995    34.9432    105(10)           109.0055          109.0055                                                                   
   996    34.9632    112(10)           108.9039          108.9039                                                                   
   997    34.9832    116(10)           108.8024          108.8024                                                                   
   998    35.0032    136(10)           108.7011          108.7011                                                                   
   999    35.0232    117(10)           108.6000          108.6000                                                                   
  1000    35.0432    111(10)           108.4991          108.4991                                                                   
  1001    35.0632    116(10)           108.3983          108.3983                                                                   
  1002    35.0832    102(10)           108.2976          108.2976                                                                   
  1003    35.1032    105(10)           108.1971          108.1971                                                                   
  1004    35.1232    106(10)           108.0968          108.0968                                                                   
  1005    35.1432    104(10)           107.9966          107.9966                                                                   
  1006    35.1632    105(10)           107.8966          107.8966                                                                   
  1007    35.1832    93(10)           107.7968          107.7968                                                                    
  1008    35.2032    80(10)           107.6971          107.6971                                                                    
  1009    35.2232    99(10)           107.5975          107.5975                                                                    
  1010    35.2432    93(10)           107.4981          107.4981                                                                    
  1011    35.2632    85(10)           107.3989          107.3989                                                                    
  1012    35.2832    89(10)           107.2998          107.2998                                                                    
  1013    35.3032    90(10)           107.2009          107.2009                                                                    
  1014    35.3232    91(10)           107.1021          107.1021                                                                    
  1015    35.3432    91(10)           107.0035          107.0035                                                                    
  1016    35.3632    86(10)           106.9051          106.9051                                                                    
  1017    35.3832    105(10)           106.8068          106.8068                                                                   
  1018    35.4032    97(10)           106.7086          106.7086                                                                    
  1019    35.4232    93(10)           106.6107          106.6107                                                                    
  1020    35.4432    94(10)           106.5128          106.5128                                                                    
  1021    35.4632    88(10)           106.4151          106.4151                                                                    
  1022    35.4832    101(10)           106.3176          106.3176                                                                   
  1023    35.5032    94(10)           106.2202          106.2202                                                                    
  1024    35.5232    96(10)           106.1230          106.1230                                                                    
  1025    35.5432    95(10)           106.0259          106.0259                                                                    
  1026    35.5632    91(10)           105.9290          105.9290                                                                    
  1027    35.5832    87(10)           105.8323          105.8323                                                                    
  1028    35.6032    83(10)           105.7356          105.7356                                                                    
  1029    35.6232    91(10)           105.6392          105.6392                                                                    
  1030    35.6432    84(10)           105.5429          105.5429                                                                    
  1031    35.6632    91(10)           105.4467          105.4467                                                                    
  1032    35.6832    77(10)           105.3507          105.3507                                                                    
  1033    35.7032    85(10)           105.2549          105.2549                                                                    
  1034    35.7232    90(10)           105.1592          105.1592                                                                    
  1035    35.7432    102(10)           105.0637          105.0637                                                                   
  1036    35.7632    90(10)           104.9683          104.9683                                                                    
  1037    35.7832    84(10)           104.8730          104.8730                                                                    
  1038    35.8032    89(10)           104.7779          104.7779                                                                    
  1039    35.8232    85(10)           104.6830          104.6830                                                                    
  1040    35.8432    85(10)           104.5882          104.5882                                                                    
  1041    35.8632    90(10)           104.4936          104.4936                                                                    
  1042    35.8832    95(10)           104.3991          104.3991                                                                    
  1043    35.9032    91(10)           104.3047          104.3047                                                                    
  1044    35.9232    88(10)           104.2106          104.2106                                                                    
  1045    35.9432    79(10)           104.1165          104.1165                                                                    
  1046    35.9632    71(10)           104.0226          104.0226                                                                    
  1047    35.9832    83(10)           103.9289          103.9289                                                                    
  1048    36.0032    90(10)           103.8353          103.8353                                                                    
  1049    36.0232    75(10)           103.7418          103.7418                                                                    
  1050    36.0432    75(10)           103.6486          103.6486                                                                    
  1051    36.0632    84(10)           103.5554          103.5554                                                                    
  1052    36.0832    81(10)           103.4624          103.4624                                                                    
  1053    36.1032    90(10)           103.3696          103.3696                                                                    
  1054    36.1232    84(10)           103.2769          103.2769                                                                    
  1055    36.1432    87(10)           103.1843          103.1843                                                                    
  1056    36.1632    77(10)           103.0919          103.0919                                                                    
  1057    36.1832    106(10)           102.9996          102.9996                                                                   
  1058    36.2032    84(10)           102.9075          102.9075                                                                    
  1059    36.2232    87(10)           102.8156          102.8156                                                                    
  1060    36.2432    80(10)           102.7237          102.7237                                                                    
  1061    36.2632    91(10)           102.6321          102.6321                                                                    
  1062    36.2832    89(10)           102.5405          102.5405                                                                    
  1063    36.3032    86(10)           102.4492          102.4492                                                                    
  1064    36.3232    78(10)           102.3579          102.3579                                                                    
  1065    36.3432    76(10)           102.2668          102.2668                                                                    
  1066    36.3632    79(10)           102.1759          102.1759                                                                    
  1067    36.3832    91(10)           102.0851          102.0851                                                                    
  1068    36.4032    83(10)           101.9944          101.9944                                                                    
  1069    36.4232    78(10)           101.9039          101.9039                                                                    
  1070    36.4432    87(10)           101.8136          101.8136                                                                    
  1071    36.4632    80(10)           101.7233          101.7233                                                                    
  1072    36.4832    73(10)           101.6333          101.6333                                                                    
  1073    36.5032    86(10)           101.5433          101.5433                                                                    
  1074    36.5232    78(10)           101.4535          101.4535                                                                    
  1075    36.5432    74(10)           101.3639          101.3639                                                                    
  1076    36.5632    93(10)           101.2744          101.2744                                                                    
  1077    36.5832    82(10)           101.1850          101.1850                                                                    
  1078    36.6032    81(10)           101.0958          101.0958                                                                    
  1079    36.6232    75(10)           101.0067          101.0067                                                                    
  1080    36.6432    86(10)           100.9178          100.9178                                                                    
  1081    36.6632    85(10)           100.8290          100.8290                                                                    
  1082    36.6832    71(10)           100.7404          100.7404                                                                    
  1083    36.7032    86(10)           100.6519          100.6519                                                                    
  1084    36.7232    94(10)           100.5635          100.5635                                                                    
  1085    36.7432    85(10)           100.4753          100.4753                                                                    
  1086    36.7632    92(10)           100.3873          100.3873                                                                    
  1087    36.7832    86(10)           100.2993          100.2993                                                                    
  1088    36.8032    78(10)           100.2115          100.2115                                                                    
  1089    36.8232    76(10)           100.1239          100.1239                                                                    
  1090    36.8432    82(10)           100.0364          100.0364                                                                    
  1091    36.8632    69(10)            99.9490           99.9490                                                                    
  1092    36.8832    70(10)            99.8618           99.8618                                                                    
  1093    36.9032    82(10)            99.7747           99.7747                                                                    
  1094    36.9232    79(10)            99.6877           99.6877                                                                    
  1095    36.9432    88(10)            99.6009           99.6009                                                                    
  1096    36.9632    70(10)            99.5143           99.5143                                                                    
  1097    36.9832    72(10)            99.4277           99.4277                                                                    
  1098    37.0032    85(10)            99.3413           99.3413                                                                    
  1099    37.0232    73(10)            99.2551           99.2551                                                                    
  1100    37.0432    86(10)            99.1690           99.1690                                                                    
  1101    37.0632    90(10)            99.0830           99.0830                                                                    
  1102    37.0832    79(10)            98.9972           98.9972                                                                    
  1103    37.1032    79(10)            98.9115           98.9115                                                                    
  1104    37.1232    76(10)            98.8259           98.8259                                                                    
  1105    37.1432    75(10)            98.7405           98.7405                                                                    
  1106    37.1632    75(10)            98.6552           98.6552                                                                    
  1107    37.1832    77(10)            98.5701           98.5701                                                                    
  1108    37.2032    71(10)            98.4851           98.4851                                                                    
  1109    37.2232    79(10)            98.4002           98.4002                                                                    
  1110    37.2432    83(10)            98.3155           98.3155                                                                    
  1111    37.2632    77(10)            98.2309           98.2309                                                                    
  1112    37.2832    88(10)            98.1464           98.1464                                                                    
  1113    37.3032    81(10)            98.0621           98.0621                                                                    
  1114    37.3232    77(10)            97.9779           97.9779                                                                    
  1115    37.3432    80(10)            97.8939           97.8939                                                                    
  1116    37.3632    81(10)            97.8100           97.8100                                                                    
  1117    37.3832    79(10)            97.7262           97.7262                                                                    
  1118    37.4032    96(10)            97.6426           97.6426                                                                    
  1119    37.4232    84(10)            97.5591           97.5591                                                                    
  1120    37.4432    70(10)            97.4757           97.4757                                                                    
  1121    37.4632    81(10)            97.3925           97.3925                                                                    
  1122    37.4832    90(10)            97.3094           97.3094                                                                    
  1123    37.5032    90(10)            97.2264           97.2264                                                                    
  1124    37.5232    79(10)            97.1436           97.1436                                                                    
  1125    37.5432    92(10)            97.0609           97.0609                                                                    
  1126    37.5632    92(10)            96.9784           96.9784                                                                    
  1127    37.5832    92(10)            96.8960           96.8960                                                                    
  1128    37.6032    97(10)            96.8136           96.8136                                                                    
  1129    37.6232    86(10)            96.7315           96.7315                                                                    
  1130    37.6432    97(10)            96.6495           96.6495                                                                    
  1131    37.6632    94(10)            96.5676           96.5676                                                                    
  1132    37.6832    92(10)            96.4858           96.4858                                                                    
  1133    37.7032    108(10)            96.4042           96.4042                                                                   
  1134    37.7232    95(10)            96.3227           96.3227                                                                    
  1135    37.7432    88(10)            96.2414           96.2414                                                                    
  1136    37.7632    106(10)            96.1601           96.1601                                                                   
  1137    37.7832    90(10)            96.0790           96.0790                                                                    
  1138    37.8032    93(10)            95.9981           95.9981                                                                    
  1139    37.8232    99(10)            95.9173           95.9173                                                                    
  1140    37.8432    99(10)            95.8366           95.8366                                                                    
  1141    37.8632    100(10)            95.7560           95.7560                                                                   
  1142    37.8832    90(10)            95.6756           95.6756                                                                    
  1143    37.9032    91(10)            95.5953           95.5953                                                                    
  1144    37.9232    98(10)            95.5151           95.5151                                                                    
  1145    37.9432    90(10)            95.4351           95.4351                                                                    
  1146    37.9632    102(10)            95.3552           95.3552                                                                   
  1147    37.9832    91(10)            95.2754           95.2754                                                                    
  1148    38.0032    97(10)            95.1957           95.1957                                                                    
  1149    38.0232    95(10)            95.1162           95.1162                                                                    
  1150    38.0432    102(10)            95.0369           95.0369                                                                   
  1151    38.0632    104(10)            94.9576           94.9576                                                                   
  1152    38.0832    102(10)            94.8785           94.8785                                                                   
  1153    38.1032    97(10)            94.7995           94.7995                                                                    
  1154    38.1232    106(10)            94.7206           94.7206                                                                   
  1155    38.1432    100(10)            94.6419           94.6419                                                                   
  1156    38.1632    106(10)            94.5632           94.5632                                                                   
  1157    38.1832    92(10)            94.4848           94.4848                                                                    
  1158    38.2032    100(10)            94.4064           94.4064                                                                   
  1159    38.2232    113(10)            94.3282           94.3282                                                                   
  1160    38.2432    103(10)            94.2501           94.2501                                                                   
  1161    38.2632    99(10)            94.1721           94.1721                                                                    
  1162    38.2832    102(10)            94.0943           94.0943                                                                   
  1163    38.3032    101(10)            94.0166           94.0166                                                                   
  1164    38.3232    111(10)            93.9390           93.9390                                                                   
  1165    38.3432    96(10)            93.8616           93.8616                                                                    
  1166    38.3632    113(10)            93.7842           93.7842                                                                   
  1167    38.3832    102(10)            93.7071           93.7071                                                                   
  1168    38.4032    105(10)            93.6300           93.6300                                                                   
  1169    38.4232    114(11)           129.0236           93.5530                                                                   
  1170    38.4432    109(11)           131.9923           93.4762                                                                   
  1171    38.4632    114(12)           135.3689           93.3995                                                                   
  1172    38.4832    134(12)           139.2296           93.3230                                                                   
  1173    38.5032    151(12)           143.6689           93.2465                                                                   
  1174    38.5232    147(13)           166.5299           93.1702                                                                   
  1175    38.5432    177(13)           174.0424           93.0940                                                                   
  1176    38.5632    183(14)           182.8203           93.0179                                                                   
  1177    38.5832    184(14)           193.1983           92.9420                                                                   
  1178    38.6032    185(14)           205.6921           92.8662                                                                   
  1179    38.6232    195(15)           221.1667           92.7905                                                                   
  1180    38.6432    251(16)           241.1598           92.7150                                                                   
  1181    38.6632    273(16)           268.4207           92.6395                                                                   
  1182    38.6832    334(18)           307.6495           92.5642                                                                   
  1183    38.7032    418(19)           366.2021           92.4890                                                                   
  1184    38.7232    505(21)           454.3513           92.4140                                                                   
  1185    38.7432    614(24)           584.5780           92.3390                                                                   
  1186    38.7632    841(28)           771.3985           92.2642                                                                   
  1187    38.7832    1162(32)          1036.3198           92.1895                                                                  
  1188    38.8032    1548(38)          1420.2404           92.1150                                                                  
  1189    38.8232    2258(45)          1983.0396           92.0405                                                                  
  1190    38.8432    3210(53)          2760.8674           91.9662                                                                  
  1191    38.8632    4374(61)          3731.7603           91.8920                                                                  
  1192    38.8832    5306(70)          4842.1079           91.8179                                                                  
  1193    38.9032    5755(76)          5807.9712           91.7440                                                                  
  1194    38.9232    5402(76)          5849.0728           91.6701                                                                  
  1195    38.9432    4886(70)          4835.6602           91.5964                                                                  
  1196    38.9632    4125(61)          3701.9756           91.5228                                                                  
  1197    38.9832    3545(56)          3095.5037           91.4494                                                                  
  1198    39.0032    3170(54)          2930.5903           91.3760                                                                  
  1199    39.0232    2672(51)          2597.2815           91.3028                                                                  
  1200    39.0432    2080(43)          1863.5126           91.2297                                                                  
  1201    39.0632    1455(33)          1105.9269           91.1567                                                                  
  1202    39.0832    880(25)           602.3322           91.0839                                                                   
  1203    39.1032    537(19)           361.9350           91.0112                                                                   
  1204    39.1232    357(17)           277.1646           90.9385                                                                   
  1205    39.1432    299(16)           257.0955           90.8660                                                                   
  1206    39.1632    237(16)           256.9391           90.7937                                                                   
  1207    39.1832    194(16)           258.4928           90.7214                                                                   
  1208    39.2032    183(16)           255.2635           90.6493                                                                   
  1209    39.2232    170(16)           246.5608           90.5773                                                                   
  1210    39.2432    141(15)           234.2284           90.5054                                                                   
  1211    39.2632    134(15)           220.5083           90.4336                                                                   
  1212    39.2832    121(14)           207.0510           90.3620                                                                   
  1213    39.3032    114(14)           194.7409           90.2904                                                                   
  1214    39.3232    128(14)           183.8850           90.2190                                                                   
  1215    39.3432    111(13)           174.4653           90.1477                                                                   
  1216    39.3632    107(13)           166.3274           90.0766                                                                   
  1217    39.3832    96(13)           159.2793           90.0055                                                                    
  1218    39.4032    103(12)           153.1464           89.9345                                                                   
  1219    39.4232    92(11)           114.9281           89.8637                                                                    
  1220    39.4432    88(11)           112.6146           89.7930                                                                    
  1221    39.4632    101(11)           110.5881           89.7225                                                                   
  1222    39.4832    106(10)           108.8018           89.6520                                                                   
  1223    39.5032    109(10)           107.2182           89.5816                                                                   
  1224    39.5232    92(9)            89.5114           89.5114                                                                     
  1225    39.5432    75(9)            89.4413           89.4413                                                                     
  1226    39.5632    82(9)            89.3713           89.3713                                                                     
  1227    39.5832    97(9)            89.3014           89.3014                                                                     
  1228    39.6032    89(9)            89.2317           89.2317                                                                     
  1229    39.6232    89(9)            89.1620           89.1620                                                                     
  1230    39.6432    87(9)            89.0925           89.0925                                                                     
  1231    39.6632    105(9)            89.0231           89.0231                                                                    
  1232    39.6832    91(9)            88.9538           88.9538                                                                     
  1233    39.7032    90(9)            88.8846           88.8846                                                                     
  1234    39.7232    85(9)            88.8156           88.8156                                                                     
  1235    39.7432    100(9)            88.7466           88.7466                                                                    
  1236    39.7632    95(9)            88.6778           88.6778                                                                     
  1237    39.7832    76(9)            88.6091           88.6091                                                                     
  1238    39.8032    89(9)            88.5404           88.5404                                                                     
  1239    39.8232    88(9)            88.4720           88.4720                                                                     
  1240    39.8432    89(9)            88.4036           88.4036                                                                     
  1241    39.8632    97(9)            88.3353           88.3353                                                                     
  1242    39.8832    85(9)            88.2672           88.2672                                                                     
  1243    39.9032    90(9)            88.1992           88.1992                                                                     
  1244    39.9232    85(9)            88.1313           88.1313                                                                     
  1245    39.9432    86(9)            88.0635           88.0635                                                                     
  1246    39.9632    95(9)            87.9958           87.9958                                                                     
  1247    39.9832    84(9)            87.9282           87.9282                                                                     
  1248    40.0032    80(9)            87.8607           87.8607                                                                     
  1249    40.0232    80(9)            87.7934           87.7934                                                                     
  1250    40.0432    81(9)            87.7262           87.7262                                                                     
  1251    40.0632    73(9)            87.6591           87.6591                                                                     
  1252    40.0832    70(9)            87.5921           87.5921                                                                     
  1253    40.1032    79(9)            87.5252           87.5252                                                                     
  1254    40.1232    82(9)            87.4584           87.4584                                                                     
  1255    40.1432    90(9)            87.3917           87.3917                                                                     
  1256    40.1632    77(9)            87.3252           87.3252                                                                     
  1257    40.1832    60(9)            87.2587           87.2587                                                                     
  1258    40.2032    76(9)            87.1924           87.1924                                                                     
  1259    40.2232    79(9)            87.1262           87.1262                                                                     
  1260    40.2432    81(9)            87.0601           87.0601                                                                     
  1261    40.2632    83(9)            86.9941           86.9941                                                                     
  1262    40.2832    88(9)            86.9282           86.9282                                                                     
  1263    40.3032    90(9)            86.8625           86.8625                                                                     
  1264    40.3232    78(9)            86.7968           86.7968                                                                     
  1265    40.3432    76(9)            86.7312           86.7312                                                                     
  1266    40.3632    78(9)            86.6658           86.6658                                                                     
  1267    40.3832    95(9)            86.6005           86.6005                                                                     
  1268    40.4032    87(9)            86.5353           86.5353                                                                     
  1269    40.4232    84(9)            86.4702           86.4702                                                                     
  1270    40.4432    86(9)            86.4052           86.4052                                                                     
  1271    40.4632    83(9)            86.3403           86.3403                                                                     
  1272    40.4832    85(9)            86.2755           86.2755                                                                     
  1273    40.5032    84(9)            86.2109           86.2109                                                                     
  1274    40.5232    83(9)            86.1463           86.1463                                                                     
  1275    40.5432    75(9)            86.0819           86.0819                                                                     
  1276    40.5632    86(9)            86.0175           86.0175                                                                     
  1277    40.5832    72(9)            85.9533           85.9533                                                                     
  1278    40.6032    80(9)            85.8892           85.8892                                                                     
  1279    40.6232    74(9)            85.8252           85.8252                                                                     
  1280    40.6432    80(9)            85.7613           85.7613                                                                     
  1281    40.6632    81(9)            85.6975           85.6975                                                                     
  1282    40.6832    86(9)            85.6338           85.6338                                                                     
  1283    40.7032    72(9)            85.5702           85.5702                                                                     
  1284    40.7232    82(9)            85.5068           85.5068                                                                     
  1285    40.7432    78(9)            85.4434           85.4434                                                                     
  1286    40.7632    86(9)            85.3801           85.3801                                                                     
  1287    40.7832    92(9)            85.3170           85.3170                                                                     
  1288    40.8032    90(9)            85.2540           85.2540                                                                     
  1289    40.8232    100(9)            85.1910           85.1910                                                                    
  1290    40.8432    90(9)            85.1282           85.1282                                                                     
  1291    40.8632    94(9)            85.0655           85.0655                                                                     
  1292    40.8832    94(9)            85.0029           85.0029                                                                     
  1293    40.9032    84(9)            84.9404           84.9404                                                                     
  1294    40.9232    94(9)            84.8780           84.8780                                                                     
  1295    40.9432    73(9)            84.8157           84.8157                                                                     
  1296    40.9632    75(9)            84.7535           84.7535                                                                     
  1297    40.9832    74(9)            84.6915           84.6915                                                                     
  1298    41.0032    77(9)            84.6295           84.6295                                                                     
  1299    41.0232    74(9)            84.5676           84.5676                                                                     
  1300    41.0432    73(9)            84.5059           84.5059                                                                     
  1301    41.0632    76(9)            84.4442           84.4442                                                                     
  1302    41.0832    80(9)            84.3827           84.3827                                                                     
  1303    41.1032    70(9)            84.3212           84.3212                                                                     
  1304    41.1232    80(9)            84.2599           84.2599                                                                     
  1305    41.1432    72(9)            84.1987           84.1987                                                                     
  1306    41.1632    78(9)            84.1375           84.1375                                                                     
  1307    41.1832    72(9)            84.0765           84.0765                                                                     
  1308    41.2032    69(9)            84.0156           84.0156                                                                     
  1309    41.2232    79(9)            83.9548           83.9548                                                                     
  1310    41.2432    62(9)            83.8941           83.8941                                                                     
  1311    41.2632    70(9)            83.8335           83.8335                                                                     
  1312    41.2832    62(9)            83.7730           83.7730                                                                     
  1313    41.3032    77(9)            83.7126           83.7126                                                                     
  1314    41.3232    66(9)            83.6523           83.6523                                                                     
  1315    41.3432    66(9)            83.5921           83.5921                                                                     
  1316    41.3632    81(9)            83.5320           83.5320                                                                     
  1317    41.3832    67(9)            83.4720           83.4720                                                                     
  1318    41.4032    57(9)            83.4121           83.4121                                                                     
  1319    41.4232    78(9)            83.3524           83.3524                                                                     
  1320    41.4432    69(9)            83.2927           83.2927                                                                     
  1321    41.4632    65(9)            83.2331           83.2331                                                                     
  1322    41.4832    74(9)            83.1736           83.1736                                                                     
  1323    41.5032    74(9)            83.1142           83.1142                                                                     
  1324    41.5232    60(9)            83.0550           83.0550                                                                     
  1325    41.5432    74(9)            82.9958           82.9958                                                                     
  1326    41.5632    67(9)            82.9368           82.9368                                                                     
  1327    41.5832    70(9)            82.8778           82.8778                                                                     
  1328    41.6032    77(9)            82.8189           82.8189                                                                     
  1329    41.6232    65(9)            82.7602           82.7602                                                                     
  1330    41.6432    63(9)            82.7015           82.7015                                                                     
  1331    41.6632    70(9)            82.6430           82.6430                                                                     
  1332    41.6832    70(9)            82.5845           82.5845                                                                     
  1333    41.7032    63(9)            82.5262           82.5262                                                                     
  1334    41.7232    74(9)            82.4679           82.4679                                                                     
  1335    41.7432    64(9)            82.4097           82.4097                                                                     
  1336    41.7632    64(9)            82.3517           82.3517                                                                     
  1337    41.7832    67(9)            82.2937           82.2937                                                                     
  1338    41.8032    59(9)            82.2359           82.2359                                                                     
  1339    41.8232    71(9)            82.1781           82.1781                                                                     
  1340    41.8432    67(9)            82.1205           82.1205                                                                     
  1341    41.8632    59(9)            82.0629           82.0629                                                                     
  1342    41.8832    71(9)            82.0055           82.0055                                                                     
  1343    41.9032    76(9)            81.9481           81.9481                                                                     
  1344    41.9232    64(9)            81.8908           81.8908                                                                     
  1345    41.9432    61(9)            81.8337           81.8337                                                                     
  1346    41.9632    72(9)            81.7766           81.7766                                                                     
  1347    41.9832    62(9)            81.7197           81.7197                                                                     
  1348    42.0032    59(9)            81.6628           81.6628                                                                     
  1349    42.0232    49(9)            81.6060           81.6060                                                                     
  1350    42.0432    54(9)            81.5494           81.5494                                                                     
  1351    42.0632    67(9)            81.4928           81.4928                                                                     
  1352    42.0832    62(9)            81.4363           81.4363                                                                     
  1353    42.1032    63(9)            81.3800           81.3800                                                                     
  1354    42.1232    66(9)            81.3237           81.3237                                                                     
  1355    42.1432    52(9)            81.2675           81.2675                                                                     
  1356    42.1632    72(9)            81.2114           81.2114                                                                     
  1357    42.1832    62(9)            81.1554           81.1554                                                                     
  1358    42.2032    63(9)            81.0996           81.0996                                                                     
  1359    42.2232    76(9)            81.0438           81.0438                                                                     
  1360    42.2432    70(9)            80.9881           80.9881                                                                     
  1361    42.2632    73(9)            80.9325           80.9325                                                                     
  1362    42.2832    65(9)            80.8770           80.8770                                                                     
  1363    42.3032    61(9)            80.8216           80.8216                                                                     
  1364    42.3232    57(9)            80.7663           80.7663                                                                     
  1365    42.3432    57(9)            80.7111           80.7111                                                                     
  1366    42.3632    66(9)            80.6560           80.6560                                                                     
  1367    42.3832    66(9)            80.6010           80.6010                                                                     
  1368    42.4032    57(9)            80.5460           80.5460                                                                     
  1369    42.4232    72(9)            80.4912           80.4912                                                                     
  1370    42.4432    55(9)            80.4365           80.4365                                                                     
  1371    42.4632    53(9)            80.3818           80.3818                                                                     
  1372    42.4832    61(9)            80.3273           80.3273                                                                     
  1373    42.5032    68(9)            80.2729           80.2729                                                                     
  1374    42.5232    57(9)            80.2185           80.2185                                                                     
  1375    42.5432    60(9)            80.1643           80.1643                                                                     
  1376    42.5632    70(9)            80.1101           80.1101                                                                     
  1377    42.5832    66(9)            80.0560           80.0560                                                                     
  1378    42.6032    64(9)            80.0021           80.0021                                                                     
  1379    42.6232    68(9)            79.9482           79.9482                                                                     
  1380    42.6432    61(9)            79.8944           79.8944                                                                     
  1381    42.6632    69(9)            79.8407           79.8407                                                                     
  1382    42.6832    71(9)            79.7871           79.7871                                                                     
  1383    42.7032    81(9)            79.7336           79.7336                                                                     
  1384    42.7232    62(9)            79.6802           79.6802                                                                     
  1385    42.7432    79(9)            79.6269           79.6269                                                                     
  1386    42.7632    68(9)            79.5737           79.5737                                                                     
  1387    42.7832    69(9)            79.5205           79.5205                                                                     
  1388    42.8032    77(9)            79.4675           79.4675                                                                     
  1389    42.8232    78(9)            79.4145           79.4145                                                                     
  1390    42.8432    94(9)            79.3617           79.3617                                                                     
  1391    42.8632    83(9)            79.3090           79.3090                                                                     
  1392    42.8832    78(9)            79.2563           79.2563                                                                     
  1393    42.9032    92(9)            79.2037           79.2037                                                                     
  1394    42.9232    92(9)            79.1512           79.1512                                                                     
  1395    42.9432    98(9)            79.0988           79.0988                                                                     
  1396    42.9632    94(9)            79.0465           79.0465                                                                     
  1397    42.9832    86(9)            78.9943           78.9943                                                                     
  1398    43.0032    86(9)            78.9422           78.9422                                                                     
  1399    43.0232    92(9)            78.8902           78.8902                                                                     
  1400    43.0432    106(9)            78.8383           78.8383                                                                    
  1401    43.0632    82(9)            78.7864           78.7864                                                                     
  1402    43.0832    98(9)            78.7347           78.7347                                                                     
  1403    43.1032    112(9)            78.6830           78.6830                                                                    
  1404    43.1232    93(9)            78.6314           78.6314                                                                     
  1405    43.1432    86(9)            78.5800           78.5800                                                                     
  1406    43.1632    91(9)            78.5286           78.5286                                                                     
  1407    43.1832    95(9)            78.4773           78.4773                                                                     
  1408    43.2032    112(9)            78.4261           78.4261                                                                    
  1409    43.2232    95(9)            78.3749           78.3749                                                                     
  1410    43.2432    111(9)            78.3239           78.3239                                                                    
  1411    43.2632    99(9)            78.2730           78.2730                                                                     
  1412    43.2832    98(9)            78.2221           78.2221                                                                     
  1413    43.3032    105(9)            78.1714           78.1714                                                                    
  1414    43.3232    110(9)            78.1207           78.1207                                                                    
  1415    43.3432    114(9)            78.0701           78.0701                                                                    
  1416    43.3632    115(9)            78.0197           78.0197                                                                    
  1417    43.3832    121(9)            77.9692           77.9692                                                                    
  1418    43.4032    106(9)            77.9189           77.9189                                                                    
  1419    43.4232    119(9)            77.8687           77.8687                                                                    
  1420    43.4432    115(9)            77.8186           77.8186                                                                    
  1421    43.4632    102(9)            77.7685           77.7685                                                                    
  1422    43.4832    119(9)            77.7186           77.7186                                                                    
  1423    43.5032    116(9)            77.6687           77.6687                                                                    
  1424    43.5232    121(9)            77.6189           77.6189                                                                    
  1425    43.5432    111(9)            77.5692           77.5692                                                                    
  1426    43.5632    116(9)            77.5196           77.5196                                                                    
  1427    43.5832    102(9)            77.4701           77.4701                                                                    
  1428    43.6032    101(9)            77.4207           77.4207                                                                    
  1429    43.6232    100(9)            77.3713           77.3713                                                                    
  1430    43.6432    93(9)            77.3220           77.3220                                                                     
  1431    43.6632    95(9)            77.2729           77.2729                                                                     
  1432    43.6832    90(9)            77.2238           77.2238                                                                     
  1433    43.7032    92(9)            77.1748           77.1748                                                                     
  1434    43.7232    85(9)            77.1259           77.1259                                                                     
  1435    43.7432    90(9)            77.0771           77.0771                                                                     
  1436    43.7632    98(9)            77.0283           77.0283                                                                     
  1437    43.7832    93(9)            76.9797           76.9797                                                                     
  1438    43.8032    88(9)            76.9311           76.9311                                                                     
  1439    43.8232    92(9)            76.8826           76.8826                                                                     
  1440    43.8432    104(9)            76.8343           76.8343                                                                    
  1441    43.8632    106(9)            76.7859           76.7859                                                                    
  1442    43.8832    89(9)            76.7377           76.7377                                                                     
  1443    43.9032    82(9)            76.6896           76.6896                                                                     
  1444    43.9232    92(9)            76.6415           76.6415                                                                     
  1445    43.9432    87(9)            76.5936           76.5936                                                                     
  1446    43.9632    99(9)            76.5457           76.5457                                                                     
  1447    43.9832    98(9)            76.4979           76.4979                                                                     
  1448    44.0032    109(9)            76.4502           76.4502                                                                    
  1449    44.0232    90(9)            76.4026           76.4026                                                                     
  1450    44.0432    95(9)            76.3550           76.3550                                                                     
  1451    44.0632    97(9)            76.3076           76.3076                                                                     
  1452    44.0832    91(9)            76.2602           76.2602                                                                     
  1453    44.1032    107(9)            76.2129           76.2129                                                                    
  1454    44.1232    106(9)            76.1657           76.1657                                                                    
  1455    44.1432    108(9)            76.1186           76.1186                                                                    
  1456    44.1632    100(9)            76.0715           76.0715                                                                    
  1457    44.1832    117(9)            76.0246           76.0246                                                                    
  1458    44.2032    97(9)            75.9777           75.9777                                                                     
  1459    44.2232    104(9)            75.9310           75.9310                                                                    
  1460    44.2432    109(9)            75.8843           75.8843                                                                    
  1461    44.2632    103(9)            75.8376           75.8376                                                                    
  1462    44.2832    124(9)            75.7911           75.7911                                                                    
  1463    44.3032    111(9)            75.7447           75.7447                                                                    
  1464    44.3232    115(9)            75.6983           75.6983                                                                    
  1465    44.3432    100(9)            75.6520           75.6520                                                                    
  1466    44.3632    126(9)            75.6058           75.6058                                                                    
  1467    44.3832    134(10)            95.0835           75.5597                                                                   
  1468    44.4032    139(10)            96.5344           75.5136                                                                   
  1469    44.4232    120(10)            98.1637           75.4677                                                                   
  1470    44.4432    131(10)           100.0007           75.4218                                                                   
  1471    44.4632    138(10)           102.0811           75.3760                                                                   
  1472    44.4832    139(10)           104.4484           75.3303                                                                   
  1473    44.5032    149(11)           117.0242           75.2847                                                                   
  1474    44.5232    143(11)           120.9043           75.2391                                                                   
  1475    44.5432    162(11)           125.3730           75.1937                                                                   
  1476    44.5632    166(11)           130.5676           75.1483                                                                   
  1477    44.5832    199(12)           136.6814           75.1030                                                                   
  1478    44.6032    212(12)           144.0123           75.0578                                                                   
  1479    44.6232    232(12)           153.0480           75.0126                                                                   
  1480    44.6432    233(13)           164.6118           74.9676                                                                   
  1481    44.6632    255(15)           213.7543           74.9226                                                                   
  1482    44.6832    283(15)           237.2076           74.8777                                                                   
  1483    44.7032    305(16)           270.1331           74.8329                                                                   
  1484    44.7232    369(18)           316.8399           74.7881                                                                   
  1485    44.7432    397(20)           382.4190           74.7435                                                                   
  1486    44.7632    459(22)           488.6588           74.6989                                                                   
  1487    44.7832    578(25)           612.1321           74.6544                                                                   
  1488    44.8032    755(28)           781.6552           74.6100                                                                   
  1489    44.8232    987(32)          1019.2614           74.5656                                                                   
  1490    44.8432    1358(37)          1347.7020           74.5214                                                                  
  1491    44.8632    1791(42)          1776.0745           74.4772                                                                  
  1492    44.8832    2481(48)          2300.1196           74.4331                                                                  
  1493    44.9032    3095(54)          2878.9111           74.3891                                                                  
  1494    44.9232    3388(57)          3291.1731           74.3451                                                                  
  1495    44.9432    3351(56)          3181.1367           74.3013                                                                  
  1496    44.9632    2869(51)          2636.8748           74.2575                                                                  
  1497    44.9832    2586(46)          2094.6777           74.2138                                                                  
  1498    45.0032    2371(43)          1808.5375           74.1701                                                                  
  1499    45.0232    2433(42)          1775.6372           74.1266                                                                  
  1500    45.0432    2386(42)          1782.7151           74.0831                                                                  
  1501    45.0632    2187(40)          1589.8497           74.0397                                                                  
  1502    45.0832    1824(35)          1246.1005           73.9964                                                                  
  1503    45.1032    1535(31)           941.0551           73.9532                                                                  
  1504    45.1232    1285(28)           767.7957           73.9100                                                                  
  1505    45.1432    1151(27)           724.4153           73.8669                                                                  
  1506    45.1632    1044(28)           773.3661           73.8239                                                                  
  1507    45.1832    1081(30)           882.4195           73.7810                                                                  
  1508    45.2032    1149(32)          1035.2593           73.7382                                                                  
  1509    45.2232    1163(35)          1227.4141           73.6954                                                                  
  1510    45.2432    1231(38)          1461.5953           73.6527                                                                  
  1511    45.2632    1381(42)          1744.8667           73.6101                                                                  
  1512    45.2832    1719(46)          2086.0686           73.5675                                                                  
  1513    45.3032    2034(50)          2495.1704           73.5251                                                                  
  1514    45.3232    2557(55)          2984.4866           73.4827                                                                  
  1515    45.3432    3570(60)          3560.3572           73.4404                                                                  
  1516    45.3632    4485(65)          4179.6880           73.3981                                                                  
  1517    45.3832    4788(68)          4676.6504           73.3560                                                                  
  1518    45.4032    4878(69)          4799.1953           73.3139                                                                  
  1519    45.4232    4427(67)          4472.0254           73.2719                                                                  
  1520    45.4432    3800(63)          3910.7795           73.2300                                                                  
  1521    45.4632    3211(58)          3380.9045           73.1881                                                                  
  1522    45.4832    3107(55)          2981.7891           73.1463                                                                  
  1523    45.5032    2827(52)          2697.7712           73.1046                                                                  
  1524    45.5232    2605(49)          2365.1738           73.0630                                                                  
  1525    45.5432    2126(44)          1924.6255           73.0215                                                                  
  1526    45.5632    1690(38)          1451.2443           72.9800                                                                  
  1527    45.5832    1101(32)          1038.9122           72.9386                                                                  
  1528    45.6032    749(27)           720.5714           72.8973                                                                   
  1529    45.6232    548(23)           514.8798           72.8560                                                                   
  1530    45.6432    415(20)           390.9591           72.8148                                                                   
  1531    45.6632    341(18)           323.1654           72.7737                                                                   
  1532    45.6832    298(17)           289.5181           72.7327                                                                   
  1533    45.7032    238(17)           274.4263           72.6918                                                                   
  1534    45.7232    232(16)           268.0128           72.6509                                                                   
  1535    45.7432    202(16)           264.4732           72.6101                                                                   
  1536    45.7632    197(16)           260.6743           72.5693                                                                   
  1537    45.7832    149(16)           255.2242           72.5287                                                                   
  1538    45.8032    161(16)           247.8271           72.4881                                                                   
  1539    45.8232    154(15)           238.7995           72.4476                                                                   
  1540    45.8432    144(15)           228.7174           72.4071                                                                   
  1541    45.8632    120(15)           218.1875           72.3668                                                                   
  1542    45.8832    118(14)           207.7131           72.3265                                                                   
  1543    45.9032    133(14)           197.6597           72.2863                                                                   
  1544    45.9232    96(14)           188.2487           72.2461                                                                    
  1545    45.9432    111(13)           179.5860           72.2061                                                                   
  1546    45.9632    104(13)           171.6953           72.1661                                                                   
  1547    45.9832    103(13)           164.5491           72.1262                                                                   
  1548    46.0032    103(13)           158.0926           72.0863                                                                   
  1549    46.0232    102(12)           152.2596           72.0465                                                                   
  1550    46.0432    85(12)           146.9837           72.0068                                                                    
  1551    46.0632    75(12)           142.1994           71.9672                                                                    
  1552    46.0832    83(12)           137.8506           71.9276                                                                    
  1553    46.1032    87(12)           133.8867           71.8881                                                                    
  1554    46.1232    80(11)           130.2636           71.8487                                                                    
  1555    46.1432    84(11)           126.9432           71.8094                                                                    
  1556    46.1632    79(10)            93.0903           71.7701                                                                    
  1557    46.1832    70(10)            91.8121           71.7309                                                                    
  1558    46.2032    82(10)            90.6388           71.6918                                                                    
  1559    46.2232    79(9)            89.5584           71.6527                                                                     
  1560    46.2432    86(9)            88.5614           71.6137                                                                     
  1561    46.2632    91(9)            87.6391           71.5748                                                                     
  1562    46.2832    80(8)            71.5360           71.5360                                                                     
  1563    46.3032    84(8)            71.4972           71.4972                                                                     
  1564    46.3232    75(8)            71.4585           71.4585                                                                     
  1565    46.3432    67(8)            71.4198           71.4198                                                                     
  1566    46.3632    84(8)            71.3813           71.3813                                                                     
  1567    46.3832    72(8)            71.3428           71.3428                                                                     
  1568    46.4032    75(8)            71.3044           71.3044                                                                     
  1569    46.4232    84(8)            71.2660           71.2660                                                                     
  1570    46.4432    75(8)            71.2277           71.2277                                                                     
  1571    46.4632    79(8)            71.1895           71.1895                                                                     
  1572    46.4832    77(8)            71.1514           71.1514                                                                     
  1573    46.5032    67(8)            71.1133           71.1133                                                                     
  1574    46.5232    66(8)            71.0753           71.0753                                                                     
  1575    46.5432    71(8)            71.0374           71.0374                                                                     
  1576    46.5632    71(8)            70.9995           70.9995                                                                     
  1577    46.5832    74(8)            70.9617           70.9617                                                                     
  1578    46.6032    67(8)            70.9240           70.9240                                                                     
  1579    46.6232    67(8)            70.8863           70.8863                                                                     
  1580    46.6432    63(8)            70.8488           70.8488                                                                     
  1581    46.6632    67(8)            70.8112           70.8112                                                                     
  1582    46.6832    86(8)            70.7738           70.7738                                                                     
  1583    46.7032    56(8)            70.7364           70.7364                                                                     
  1584    46.7232    73(8)            70.6991           70.6991                                                                     
  1585    46.7432    61(8)            70.6619           70.6619                                                                     
  1586    46.7632    65(8)            70.6247           70.6247                                                                     
  1587    46.7832    67(8)            70.5876           70.5876                                                                     
  1588    46.8032    68(8)            70.5505           70.5505                                                                     
  1589    46.8232    62(8)            70.5136           70.5136                                                                     
  1590    46.8432    66(8)            70.4767           70.4767                                                                     
  1591    46.8632    57(8)            70.4398           70.4398                                                                     
  1592    46.8832    57(8)            70.4031           70.4031                                                                     
  1593    46.9032    79(8)            70.3664           70.3664                                                                     
  1594    46.9232    55(8)            70.3297           70.3297                                                                     
  1595    46.9432    64(8)            70.2932           70.2932                                                                     
  1596    46.9632    73(8)            70.2567           70.2567                                                                     
  1597    46.9832    64(8)            70.2202           70.2202                                                                     
  1598    47.0032    72(8)            70.1839           70.1839                                                                     
  1599    47.0232    70(8)            70.1476           70.1476                                                                     
  1600    47.0432    79(8)            70.1114           70.1114                                                                     
  1601    47.0632    78(8)            70.0752           70.0752                                                                     
  1602    47.0832    77(8)            70.0391           70.0391                                                                     
  1603    47.1032    79(8)            70.0031           70.0031                                                                     
  1604    47.1232    75(8)            69.9671           69.9671                                                                     
  1605    47.1432    82(8)            69.9312           69.9312                                                                     
  1606    47.1632    81(8)            69.8954           69.8954                                                                     
  1607    47.1832    72(8)            69.8596           69.8596                                                                     
  1608    47.2032    84(8)            69.8239           69.8239                                                                     
  1609    47.2232    85(8)            69.7883           69.7883                                                                     
  1610    47.2432    72(8)            69.7527           69.7527                                                                     
  1611    47.2632    65(8)            69.7172           69.7172                                                                     
  1612    47.2832    59(8)            69.6818           69.6818                                                                     
  1613    47.3032    78(8)            69.6464           69.6464                                                                     
  1614    47.3232    67(8)            69.6111           69.6111                                                                     
  1615    47.3432    64(8)            69.5759           69.5759                                                                     
  1616    47.3632    63(8)            69.5407           69.5407                                                                     
  1617    47.3832    58(8)            69.5056           69.5056                                                                     
  1618    47.4032    54(8)            69.4705           69.4705                                                                     
  1619    47.4232    64(8)            69.4355           69.4355                                                                     
  1620    47.4432    62(8)            69.4006           69.4006                                                                     
  1621    47.4632    53(8)            69.3658           69.3658                                                                     
  1622    47.4832    59(8)            69.3310           69.3310                                                                     
  1623    47.5032    53(8)            69.2963           69.2963                                                                     
  1624    47.5232    55(8)            69.2616           69.2616                                                                     
  1625    47.5432    62(8)            69.2270           69.2270                                                                     
  1626    47.5632    50(8)            69.1925           69.1925                                                                     
  1627    47.5832    53(8)            69.1580           69.1580                                                                     
  1628    47.6032    59(8)            69.1236           69.1236                                                                     
  1629    47.6232    67(8)            69.0893           69.0893                                                                     
  1630    47.6432    55(8)            69.0550           69.0550                                                                     
  1631    47.6632    54(8)            69.0208           69.0208                                                                     
  1632    47.6832    62(8)            68.9867           68.9867                                                                     
  1633    47.7032    61(8)            68.9526           68.9526                                                                     
  1634    47.7232    59(8)            68.9186           68.9186                                                                     
  1635    47.7432    57(8)            68.8846           68.8846                                                                     
  1636    47.7632    60(8)            68.8507           68.8507                                                                     
  1637    47.7832    60(8)            68.8169           68.8169                                                                     
  1638    47.8032    55(8)            68.7831           68.7831                                                                     
  1639    47.8232    57(8)            68.7494           68.7494                                                                     
  1640    47.8432    63(8)            68.7157           68.7157                                                                     
  1641    47.8632    60(8)            68.6822           68.6822                                                                     
  1642    47.8832    57(8)            68.6487           68.6487                                                                     
  1643    47.9032    53(8)            68.6152           68.6152                                                                     
  1644    47.9232    65(8)            68.5818           68.5818                                                                     
  1645    47.9432    54(8)            68.5485           68.5485                                                                     
  1646    47.9632    65(8)            68.5152           68.5152                                                                     
  1647    47.9832    69(8)            68.4820           68.4820                                                                     
  1648    48.0032    60(8)            68.4488           68.4488                                                                     
  1649    48.0232    54(8)            68.4157           68.4157                                                                     
  1650    48.0432    64(8)            68.3827           68.3827                                                                     
  1651    48.0632    59(8)            68.3498           68.3498                                                                     
  1652    48.0832    56(8)            68.3169           68.3169                                                                     
  1653    48.1032    53(8)            68.2840           68.2840                                                                     
  1654    48.1232    51(8)            68.2513           68.2513                                                                     
  1655    48.1432    54(8)            68.2185           68.2185                                                                     
  1656    48.1632    55(8)            68.1859           68.1859                                                                     
  1657    48.1832    53(8)            68.1533           68.1533                                                                     
  1658    48.2032    62(8)            68.1208           68.1208                                                                     
  1659    48.2232    55(8)            68.0883           68.0883                                                                     
  1660    48.2432    59(8)            68.0559           68.0559                                                                     
  1661    48.2632    57(8)            68.0235           68.0235                                                                     
  1662    48.2832    62(8)            67.9912           67.9912                                                                     
  1663    48.3032    62(8)            67.9590           67.9590                                                                     
  1664    48.3232    66(8)            67.9268           67.9268                                                                     
  1665    48.3432    56(8)            67.8947           67.8947                                                                     
  1666    48.3632    68(8)            67.8626           67.8626                                                                     
  1667    48.3832    54(8)            67.8307           67.8307                                                                     
  1668    48.4032    62(8)            67.7987           67.7987                                                                     
  1669    48.4232    67(8)            67.7668           67.7668                                                                     
  1670    48.4432    55(8)            67.7350           67.7350                                                                     
  1671    48.4632    65(8)            67.7033           67.7033                                                                     
  1672    48.4832    66(8)            67.6716           67.6716                                                                     
  1673    48.5032    60(8)            67.6399           67.6399                                                                     
  1674    48.5232    56(8)            67.6084           67.6084                                                                     
  1675    48.5432    49(8)            67.5769           67.5769                                                                     
  1676    48.5632    63(8)            67.5454           67.5454                                                                     
  1677    48.5832    52(8)            67.5140           67.5140                                                                     
  1678    48.6032    48(8)            67.4827           67.4827                                                                     
  1679    48.6232    57(8)            67.4514           67.4514                                                                     
  1680    48.6432    47(8)            67.4202           67.4202                                                                     
  1681    48.6632    56(8)            67.3890           67.3890                                                                     
  1682    48.6832    56(8)            67.3579           67.3579                                                                     
  1683    48.7032    57(8)            67.3268           67.3268                                                                     
  1684    48.7232    56(8)            67.2958           67.2958                                                                     
  1685    48.7432    67(8)            67.2649           67.2649                                                                     
  1686    48.7632    64(8)            67.2340           67.2340                                                                     
  1687    48.7832    56(8)            67.2032           67.2032                                                                     
  1688    48.8032    60(8)            67.1725           67.1725                                                                     
  1689    48.8232    56(8)            67.1418           67.1418                                                                     
  1690    48.8432    60(8)            67.1111           67.1111                                                                     
  1691    48.8632    51(8)            67.0805           67.0805                                                                     
  1692    48.8832    58(8)            67.0500           67.0500                                                                     
  1693    48.9032    57(8)            67.0195           67.0195                                                                     
  1694    48.9232    57(8)            66.9891           66.9891                                                                     
  1695    48.9432    67(8)            66.9588           66.9588                                                                     
  1696    48.9632    69(8)            66.9285           66.9285                                                                     
  1697    48.9832    54(8)            66.8982           66.8982                                                                     
  1698    49.0032    65(8)            66.8680           66.8680                                                                     
  1699    49.0232    66(8)            66.8379           66.8379                                                                     
  1700    49.0432    66(8)            66.8078           66.8078                                                                     
  1701    49.0632    55(8)            66.7778           66.7778                                                                     
  1702    49.0832    63(8)            66.7478           66.7478                                                                     
  1703    49.1032    60(8)            66.7179           66.7179                                                                     
  1704    49.1232    58(8)            66.6881           66.6881                                                                     
  1705    49.1432    73(8)            66.6583           66.6583                                                                     
  1706    49.1632    61(8)            66.6286           66.6286                                                                     
  1707    49.1832    64(8)            66.5989           66.5989                                                                     
  1708    49.2032    71(8)            66.5693           66.5693                                                                     
  1709    49.2232    59(8)            66.5397           66.5397                                                                     
  1710    49.2432    68(8)            66.5102           66.5102                                                                     
  1711    49.2632    66(8)            66.4807           66.4807                                                                     
  1712    49.2832    65(8)            66.4513           66.4513                                                                     
  1713    49.3032    71(8)            66.4220           66.4220                                                                     
  1714    49.3232    62(8)            66.3927           66.3927                                                                     
  1715    49.3432    55(8)            66.3635           66.3635                                                                     
  1716    49.3632    65(8)            66.3343           66.3343                                                                     
  1717    49.3832    65(8)            66.3052           66.3052                                                                     
  1718    49.4032    64(8)            66.2761           66.2761                                                                     
  1719    49.4232    65(8)            66.2471           66.2471                                                                     
  1720    49.4432    61(8)            66.2181           66.2181                                                                     
  1721    49.4632    68(8)            66.1892           66.1892                                                                     
  1722    49.4832    74(8)            66.1603           66.1603                                                                     
  1723    49.5032    72(8)            66.1316           66.1316                                                                     
  1724    49.5232    73(8)            66.1028           66.1028                                                                     
  1725    49.5432    65(8)            66.0741           66.0741                                                                     
  1726    49.5632    60(8)            66.0455           66.0455                                                                     
  1727    49.5832    69(8)            66.0169           66.0169                                                                     
  1728    49.6032    74(8)            65.9884           65.9884                                                                     
  1729    49.6232    60(8)            65.9599           65.9599                                                                     
  1730    49.6432    54(8)            65.9315           65.9315                                                                     
  1731    49.6632    56(8)            65.9031           65.9031                                                                     
  1732    49.6832    58(8)            65.8748           65.8748                                                                     
  1733    49.7032    64(8)            65.8466           65.8466                                                                     
  1734    49.7232    73(8)            65.8184           65.8184                                                                     
  1735    49.7432    63(8)            65.7902           65.7902                                                                     
  1736    49.7632    67(8)            65.7621           65.7621                                                                     
  1737    49.7832    60(8)            65.7341           65.7341                                                                     
  1738    49.8032    62(8)            65.7061           65.7061                                                                     
  1739    49.8232    61(8)            65.6781           65.6781                                                                     
  1740    49.8432    65(8)            65.6503           65.6503                                                                     
  1741    49.8632    55(8)            65.6224           65.6224                                                                     
  1742    49.8832    65(8)            65.5947           65.5947                                                                     
  1743    49.9032    56(8)            65.5669           65.5669                                                                     
  1744    49.9232    53(8)            65.5392           65.5392                                                                     
  1745    49.9432    67(8)            65.5116           65.5116                                                                     
  1746    49.9632    74(8)            65.4840           65.4840                                                                     
  1747    49.9832    77(8)            65.4565           65.4565                                                                     
  1748    50.0032    68(8)            65.4291           65.4291                                                                     
  1749    50.0232    52(8)            65.4016           65.4016                                                                     
  1750    50.0432    69(8)            69.9388           65.3743                                                                     
  1751    50.0632    69(8)            70.2047           65.3470                                                                     
  1752    50.0832    69(8)            70.4997           65.3197                                                                     
  1753    50.1032    75(8)            70.8278           65.2925                                                                     
  1754    50.1232    68(8)            71.1936           65.2654                                                                     
  1755    50.1432    68(8)            71.6027           65.2383                                                                     
  1756    50.1632    68(9)            74.2494           65.2112                                                                     
  1757    50.1832    71(9)            74.9034           65.1842                                                                     
  1758    50.2032    85(9)            75.6376           65.1573                                                                     
  1759    50.2232    80(9)            76.4653           65.1304                                                                     
  1760    50.2432    73(9)            77.4024           65.1035                                                                     
  1761    50.2632    72(9)            78.4684           65.0767                                                                     
  1762    50.2832    91(9)            79.6872           65.0500                                                                     
  1763    50.3032    88(9)            81.0889           65.0233                                                                     
  1764    50.3232    79(9)            82.7108           64.9966                                                                     
  1765    50.3432    91(9)            88.8228           64.9700                                                                     
  1766    50.3632    92(10)            91.3043           64.9435                                                                    
  1767    50.3832    99(10)            94.2205           64.9170                                                                    
  1768    50.4032    102(10)            97.6796           64.8906                                                                   
  1769    50.4232    113(10)           101.8272           64.8642                                                                   
  1770    50.4432    129(10)           106.8641           64.8378                                                                   
  1771    50.4632    143(11)           113.0796           64.8116                                                                   
  1772    50.4832    150(11)           123.0611           64.7853                                                                   
  1773    50.5032    156(12)           133.3877           64.7591                                                                   
  1774    50.5232    173(12)           151.7487           64.7330                                                                   
  1775    50.5432    185(13)           171.7727           64.7069                                                                   
  1776    50.5632    226(14)           200.9929           64.6809                                                                   
  1777    50.5832    273(16)           244.1578           64.6549                                                                   
  1778    50.6032    363(18)           306.7992           64.6289                                                                   
  1779    50.6232    541(20)           393.4374           64.6030                                                                   
  1780    50.6432    760(22)           503.1212           64.5772                                                                   
  1781    50.6632    913(25)           621.2178           64.5514                                                                   
  1782    50.6832    984(26)           699.7823           64.5256                                                                   
  1783    50.7032    846(26)           698.5607           64.5000                                                                   
  1784    50.7232    699(25)           635.0662           64.4743                                                                   
  1785    50.7432    612(24)           564.2111           64.4487                                                                   
  1786    50.7632    575(23)           520.5906           64.4232                                                                   
  1787    50.7832    637(23)           510.5208           64.3977                                                                   
  1788    50.8032    697(23)           519.1703           64.3722                                                                   
  1789    50.8232    685(23)           516.8006           64.3468                                                                   
  1790    50.8432    634(22)           485.8012           64.3214                                                                   
  1791    50.8632    566(21)           442.0401           64.2962                                                                   
  1792    50.8832    509(20)           410.6238           64.2709                                                                   
  1793    50.9032    483(20)           406.0504           64.2457                                                                   
  1794    50.9232    579(21)           434.8582           64.2205                                                                   
  1795    50.9432    652(22)           499.7738           64.1954                                                                   
  1796    50.9632    773(24)           598.4487           64.1703                                                                   
  1797    50.9832    915(27)           715.3052           64.1453                                                                   
  1798    51.0032    992(29)           812.3209           64.1204                                                                   
  1799    51.0232    969(29)           854.6281           64.0954                                                                   
  1800    51.0432    976(29)           864.2745           64.0706                                                                   
  1801    51.0632    1004(30)           896.9795           64.0457                                                                  
  1802    51.0832    1019(31)           977.2416           64.0210                                                                  
  1803    51.1032    1068(33)          1070.1538           63.9962                                                                  
  1804    51.1232    1107(33)          1093.1196           63.9715                                                                  
  1805    51.1432    1014(32)          1007.4199           63.9469                                                                  
  1806    51.1632    799(29)           862.9465           63.9223                                                                   
  1807    51.1832    642(27)           727.4402           63.8978                                                                   
  1808    51.2032    620(25)           638.4214           63.8733                                                                   
  1809    51.2232    538(24)           595.6758           63.8488                                                                   
  1810    51.2432    456(24)           566.0891           63.8244                                                                   
  1811    51.2632    431(23)           508.0122           63.8001                                                                   
  1812    51.2832    319(21)           421.2348           63.7758                                                                   
  1813    51.3032    228(18)           335.0164           63.7515                                                                   
  1814    51.3232    199(16)           265.9619           63.7273                                                                   
  1815    51.3432    136(15)           216.1101           63.7031                                                                   
  1816    51.3632    114(13)           177.7771           63.6790                                                                   
  1817    51.3832    103(12)           154.9280           63.6549                                                                   
  1818    51.4032    97(12)           139.1603           63.6309                                                                    
  1819    51.4232    98(11)           127.7438           63.6069                                                                    
  1820    51.4432    79(11)           119.0462           63.5830                                                                    
  1821    51.4632    75(11)           112.1528           63.5591                                                                    
  1822    51.4832    84(10)           106.5412           63.5352                                                                    
  1823    51.5032    74(10)            99.8447           63.5114                                                                    
  1824    51.5232    76(10)            96.0476           63.4877                                                                    
  1825    51.5432    70(10)            92.8277           63.4640                                                                    
  1826    51.5632    75(9)            90.0691           63.4403                                                                     
  1827    51.5832    67(9)            87.6856           63.4167                                                                     
  1828    51.6032    61(9)            85.6102           63.3931                                                                     
  1829    51.6232    59(9)            83.7903           63.3696                                                                     
  1830    51.6432    65(9)            82.1844           63.3461                                                                     
  1831    51.6632    65(9)            80.7593           63.3227                                                                     
  1832    51.6832    61(9)            75.3626           63.2993                                                                     
  1833    51.7032    55(9)            74.4553           63.2759                                                                     
  1834    51.7232    68(8)            69.4434           63.2526                                                                     
  1835    51.7432    63(8)            68.9729           63.2294                                                                     
  1836    51.7632    50(8)            68.5494           63.2062                                                                     
  1837    51.7832    62(8)            68.1666           63.1830                                                                     
  1838    51.8032    67(8)            67.8190           63.1599                                                                     
  1839    51.8232    62(8)            65.4829           63.1368                                                                     
  1840    51.8432    55(8)            65.3059           63.1137                                                                     
  1841    51.8632    63(8)            63.0908           63.0908                                                                     
  1842    51.8832    53(8)            63.0678           63.0678                                                                     
  1843    51.9032    55(8)            63.0449           63.0449                                                                     
  1844    51.9232    52(8)            63.0220           63.0220                                                                     
  1845    51.9432    53(8)            62.9992           62.9992                                                                     
  1846    51.9632    54(8)            62.9765           62.9765                                                                     
  1847    51.9832    54(8)            62.9537           62.9537                                                                     
  1848    52.0032    55(8)            62.9311           62.9311                                                                     
  1849    52.0232    50(8)            62.9084           62.9084                                                                     
  1850    52.0432    59(8)            62.8858           62.8858                                                                     
  1851    52.0632    56(8)            62.8633           62.8633                                                                     
  1852    52.0832    59(8)            62.8408           62.8408                                                                     
  1853    52.1032    57(8)            62.8183           62.8183                                                                     
  1854    52.1232    52(8)            62.7959           62.7959                                                                     
  1855    52.1432    53(8)            62.7735           62.7735                                                                     
  1856    52.1632    62(8)            62.7512           62.7512                                                                     
  1857    52.1832    65(8)            62.7289           62.7289                                                                     
  1858    52.2032    56(8)            62.7066           62.7066                                                                     
  1859    52.2232    61(8)            62.6844           62.6844                                                                     
  1860    52.2432    48(8)            62.6623           62.6623                                                                     
  1861    52.2632    52(8)            62.6401           62.6401                                                                     
  1862    52.2832    48(8)            62.6181           62.6181                                                                     
  1863    52.3032    53(8)            62.5960           62.5960                                                                     
  1864    52.3232    44(8)            62.5740           62.5740                                                                     
  1865    52.3432    54(8)            62.5521           62.5521                                                                     
  1866    52.3632    52(8)            62.5302           62.5302                                                                     
  1867    52.3832    52(8)            62.5083           62.5083                                                                     
  1868    52.4032    50(8)            62.4865           62.4865                                                                     
  1869    52.4232    66(8)            62.4647           62.4647                                                                     
  1870    52.4432    47(8)            62.4430           62.4430                                                                     
  1871    52.4632    57(8)            62.4213           62.4213                                                                     
  1872    52.4832    54(8)            62.3996           62.3996                                                                     
  1873    52.5032    50(8)            62.3780           62.3780                                                                     
  1874    52.5232    48(8)            62.3564           62.3564                                                                     
  1875    52.5432    47(8)            62.3349           62.3349                                                                     
  1876    52.5632    51(8)            62.3134           62.3134                                                                     
  1877    52.5832    51(8)            62.2920           62.2920                                                                     
  1878    52.6032    58(8)            62.2706           62.2706                                                                     
  1879    52.6232    57(8)            62.2492           62.2492                                                                     
  1880    52.6432    49(8)            62.2279           62.2279                                                                     
  1881    52.6632    53(8)            62.2066           62.2066                                                                     
  1882    52.6832    50(8)            62.1854           62.1854                                                                     
  1883    52.7032    55(8)            62.1642           62.1642                                                                     
  1884    52.7232    51(8)            62.1430           62.1430                                                                     
  1885    52.7432    45(8)            62.1219           62.1219                                                                     
  1886    52.7632    58(8)            62.1008           62.1008                                                                     
  1887    52.7832    43(8)            62.0798           62.0798                                                                     
  1888    52.8032    54(8)            62.0588           62.0588                                                                     
  1889    52.8232    51(8)            62.0378           62.0378                                                                     
  1890    52.8432    58(8)            62.0169           62.0169                                                                     
  1891    52.8632    51(8)            61.9961           61.9961                                                                     
  1892    52.8832    54(8)            61.9752           61.9752                                                                     
  1893    52.9032    59(8)            61.9544           61.9544                                                                     
  1894    52.9232    56(8)            61.9337           61.9337                                                                     
  1895    52.9432    51(8)            61.9130           61.9130                                                                     
  1896    52.9632    57(8)            61.8923           61.8923                                                                     
  1897    52.9832    65(8)            61.8717           61.8717                                                                     
  1898    53.0032    44(8)            61.8511           61.8511                                                                     
  1899    53.0232    50(8)            61.8305           61.8305                                                                     
  1900    53.0432    44(8)            61.8100           61.8100                                                                     
  1901    53.0632    48(8)            61.7895           61.7895                                                                     
  1902    53.0832    58(8)            61.7691           61.7691                                                                     
  1903    53.1032    57(8)            61.7487           61.7487                                                                     
  1904    53.1232    51(8)            61.7284           61.7284                                                                     
  1905    53.1432    53(8)            61.7080           61.7080                                                                     
  1906    53.1632    42(8)            61.6878           61.6878                                                                     
  1907    53.1832    44(8)            61.6675           61.6675                                                                     
  1908    53.2032    50(8)            61.6473           61.6473                                                                     
  1909    53.2232    52(8)            61.6272           61.6272                                                                     
  1910    53.2432    49(8)            61.6071           61.6071                                                                     
  1911    53.2632    54(8)            61.5870           61.5870                                                                     
  1912    53.2832    64(8)            61.5670           61.5670                                                                     
  1913    53.3032    55(8)            61.5470           61.5470                                                                     
  1914    53.3232    56(8)            61.5270           61.5270                                                                     
  1915    53.3432    51(8)            61.5071           61.5071                                                                     
  1916    53.3632    50(8)            61.4872           61.4872                                                                     
  1917    53.3832    52(8)            61.4674           61.4674                                                                     
  1918    53.4032    53(8)            61.4475           61.4475                                                                     
  1919    53.4232    43(8)            61.4278           61.4278                                                                     
  1920    53.4432    58(8)            61.4081           61.4081                                                                     
  1921    53.4632    45(8)            61.3884           61.3884                                                                     
  1922    53.4832    49(8)            61.3687           61.3687                                                                     
  1923    53.5032    52(8)            61.3491           61.3491                                                                     
  1924    53.5232    59(8)            61.3295           61.3295                                                                     
  1925    53.5432    58(8)            61.3100           61.3100                                                                     
  1926    53.5632    47(8)            61.2905           61.2905                                                                     
  1927    53.5832    53(8)            61.2710           61.2710                                                                     
  1928    53.6032    59(8)            61.2516           61.2516                                                                     
  1929    53.6232    53(8)            61.2322           61.2322                                                                     
  1930    53.6432    62(8)            61.2129           61.2129                                                                     
  1931    53.6632    53(8)            61.1936           61.1936                                                                     
  1932    53.6832    45(8)            61.1743           61.1743                                                                     
  1933    53.7032    52(8)            61.1550           61.1550                                                                     
  1934    53.7232    59(8)            61.1358           61.1358                                                                     
  1935    53.7432    52(8)            61.1167           61.1167                                                                     
  1936    53.7632    55(8)            61.0976           61.0976                                                                     
  1937    53.7832    50(8)            61.0785           61.0785                                                                     
  1938    53.8032    62(8)            61.0594           61.0594                                                                     
  1939    53.8232    61(8)            61.0404           61.0404                                                                     
  1940    53.8432    54(8)            61.0214           61.0214                                                                     
  1941    53.8632    62(8)            61.0025           61.0025                                                                     
  1942    53.8832    56(8)            60.9836           60.9836                                                                     
  1943    53.9032    54(8)            60.9647           60.9647                                                                     
  1944    53.9232    54(8)            60.9459           60.9459                                                                     
  1945    53.9432    62(8)            60.9271           60.9271                                                                     
  1946    53.9632    63(8)            60.9084           60.9084                                                                     
  1947    53.9832    55(8)            60.8896           60.8896                                                                     
  1948    54.0032    65(8)            60.8710           60.8710                                                                     
  1949    54.0232    54(8)            60.8523           60.8523                                                                     
  1950    54.0432    60(8)            60.8337           60.8337                                                                     
  1951    54.0632    54(8)            60.8152           60.8152                                                                     
  1952    54.0832    63(8)            60.7966           60.7966                                                                     
  1953    54.1032    54(8)            60.7781           60.7781                                                                     
  1954    54.1232    59(8)            60.7597           60.7597                                                                     
  1955    54.1432    69(8)            60.7412           60.7412                                                                     
  1956    54.1632    74(8)            60.7228           60.7228                                                                     
  1957    54.1832    73(8)            60.7045           60.7045                                                                     
  1958    54.2032    74(8)            60.6862           60.6862                                                                     
  1959    54.2232    72(8)            60.6679           60.6679                                                                     
  1960    54.2432    69(8)            60.6496           60.6496                                                                     
  1961    54.2632    76(8)            60.6314           60.6314                                                                     
  1962    54.2832    73(8)            60.6133           60.6133                                                                     
  1963    54.3032    85(8)            60.5951           60.5951                                                                     
  1964    54.3232    88(8)            60.5770           60.5770                                                                     
  1965    54.3432    83(8)            60.5589           60.5589                                                                     
  1966    54.3632    85(8)            60.5409           60.5409                                                                     
  1967    54.3832    74(8)            60.5229           60.5229                                                                     
  1968    54.4032    82(8)            60.5049           60.5049                                                                     
  1969    54.4232    84(8)            60.4870           60.4870                                                                     
  1970    54.4432    82(8)            60.4691           60.4691                                                                     
  1971    54.4632    87(8)            60.4513           60.4513                                                                     
  1972    54.4832    98(8)            60.4334           60.4334                                                                     
  1973    54.5032    93(8)            60.4156           60.4156                                                                     
  1974    54.5232    97(8)            60.3979           60.3979                                                                     
  1975    54.5432    83(8)            60.3802           60.3802                                                                     
  1976    54.5632    90(8)            60.3625           60.3625                                                                     
  1977    54.5832    84(8)            60.3448           60.3448                                                                     
  1978    54.6032    87(8)            60.3272           60.3272                                                                     
  1979    54.6232    94(8)            60.3096           60.3096                                                                     
  1980    54.6432    91(8)            60.2921           60.2921                                                                     
  1981    54.6632    82(8)            60.2746           60.2746                                                                     
  1982    54.6832    88(8)            60.2571           60.2571                                                                     
  1983    54.7032    81(8)            60.2397           60.2397                                                                     
  1984    54.7232    88(8)            60.2222           60.2222                                                                     
  1985    54.7432    94(8)            60.2049           60.2049                                                                     
  1986    54.7632    84(8)            60.1875           60.1875                                                                     
  1987    54.7832    75(8)            60.1702           60.1702                                                                     
  1988    54.8032    89(8)            60.1529           60.1529                                                                     
  1989    54.8232    74(8)            60.1357           60.1357                                                                     
  1990    54.8432    82(8)            60.1185           60.1185                                                                     
  1991    54.8632    64(8)            60.1013           60.1013                                                                     
  1992    54.8832    74(8)            60.0842           60.0842                                                                     
  1993    54.9032    84(8)            60.0671           60.0671                                                                     
  1994    54.9232    77(8)            60.0500           60.0500                                                                     
  1995    54.9432    80(8)            60.0330           60.0330                                                                     
  1996    54.9632    69(8)            60.0160           60.0160                                                                     
  1997    54.9832    76(8)            59.9990           59.9990                                                                     
  1998    55.0032    79(8)            59.9821           59.9821                                                                     
  1999    55.0232    81(8)            59.9652           59.9652                                                                     
  2000    55.0432    91(8)            59.9483           59.9483                                                                     
  2001    55.0632    78(8)            59.9314           59.9314                                                                     
  2002    55.0832    80(8)            59.9146           59.9146                                                                     
  2003    55.1032    75(8)            59.8979           59.8979                                                                     
  2004    55.1232    89(8)            59.8811           59.8811                                                                     
  2005    55.1432    71(8)            59.8644           59.8644                                                                     
  2006    55.1632    80(8)            59.8477           59.8477                                                                     
  2007    55.1832    79(8)            59.8311           59.8311                                                                     
  2008    55.2032    80(8)            59.8145           59.8145                                                                     
  2009    55.2232    86(8)            59.7979           59.7979                                                                     
  2010    55.2432    93(8)            59.7814           59.7814                                                                     
  2011    55.2632    92(8)            59.7649           59.7649                                                                     
  2012    55.2832    84(8)            59.7484           59.7484                                                                     
  2013    55.3032    81(8)            59.7319           59.7319                                                                     
  2014    55.3232    93(8)            59.7155           59.7155                                                                     
  2015    55.3432    98(8)            59.6991           59.6991                                                                     
  2016    55.3632    84(9)            76.8759           59.6828                                                                     
  2017    55.3832    94(9)            77.9663           59.6665                                                                     
  2018    55.4032    89(9)            79.1666           59.6502                                                                     
  2019    55.4232    104(9)            80.4919           59.6339                                                                    
  2020    55.4432    93(9)            81.9598           59.6177                                                                     
  2021    55.4632    114(9)            83.5911           59.6015                                                                    
  2022    55.4832    102(9)            85.4107           59.5854                                                                    
  2023    55.5032    111(10)            95.7824           59.5693                                                                   
  2024    55.5232    110(10)            98.6019           59.5532                                                                   
  2025    55.5432    125(10)           101.7691           59.5371                                                                   
  2026    55.5632    126(10)           105.3449           59.5211                                                                   
  2027    55.5832    125(10)           109.4017           59.5051                                                                   
  2028    55.6032    125(11)           114.0296           59.4891                                                                   
  2029    55.6232    144(11)           119.3407           59.4732                                                                   
  2030    55.6432    147(11)           125.4761           59.4573                                                                   
  2031    55.6632    157(12)           132.6152           59.4414                                                                   
  2032    55.6832    168(12)           140.9886           59.4255                                                                   
  2033    55.7032    174(12)           150.8951           59.4097                                                                   
  2034    55.7232    203(13)           162.7361           59.3940                                                                   
  2035    55.7432    222(15)           211.0766           59.3782                                                                   
  2036    55.7632    238(15)           231.1226           59.3625                                                                   
  2037    55.7832    255(16)           255.7517           59.3468                                                                   
  2038    55.8032    301(17)           286.6845           59.3311                                                                   
  2039    55.8232    325(18)           326.7738           59.3155                                                                   
  2040    55.8432    370(20)           380.9782           59.2999                                                                   
  2041    55.8632    477(21)           457.8122           59.2844                                                                   
  2042    55.8832    599(24)           570.9374           59.2688                                                                   
  2043    55.9032    800(28)           757.0289           59.2533                                                                   
  2044    55.9232    1085(32)          1004.3849           59.2379                                                                  
  2045    55.9432    1389(37)          1346.7822           59.2224                                                                  
  2046    55.9632    1905(42)          1778.2893           59.2070                                                                  
  2047    55.9832    2224(47)          2226.8564           59.1916                                                                  
  2048    56.0032    2401(50)          2513.4937           59.1763                                                                  
  2049    56.0232    2216(50)          2475.5737           59.1609                                                                  
  2050    56.0432    1974(47)          2196.3176           59.1457                                                                  
  2051    56.0632    1855(44)          1894.2325           59.1304                                                                  
  2052    56.0832    1689(41)          1703.8860           59.1152                                                                  
  2053    56.1032    1814(41)          1661.7052           59.1000                                                                  
  2054    56.1232    1917(42)          1744.4697           59.0848                                                                  
  2055    56.1432    2075(43)          1872.8313           59.0697                                                                  
  2056    56.1632    2147(44)          1938.6709           59.0545                                                                  
  2057    56.1832    2163(44)          1930.8252           59.0395                                                                  
  2058    56.2032    2234(45)          1981.1525           59.0244                                                                  
  2059    56.2232    2522(47)          2244.6665           59.0094                                                                  
  2060    56.2432    3078(53)          2825.1533           58.9944                                                                  
  2061    56.2632    4021(61)          3738.4131           58.9794                                                                  
  2062    56.2832    5033(69)          4801.0581           58.9645                                                                  
  2063    56.3032    5266(74)          5457.6855           58.9496                                                                  
  2064    56.3232    4716(72)          5151.1606           58.9347                                                                  
  2065    56.3432    3875(65)          4191.6367           58.9199                                                                  
  2066    56.3632    2924(57)          3259.6785           58.9051                                                                  
  2067    56.3832    2441(52)          2692.0073           58.8903                                                                  
  2068    56.4032    2348(50)          2549.6418           58.8755                                                                  
  2069    56.4232    2603(52)          2742.5376           58.8608                                                                  
  2070    56.4432    2797(55)          3019.0420           58.8461                                                                  
  2071    56.4632    2624(55)          2986.3899           58.8314                                                                  
  2072    56.4832    2209(50)          2514.9341           58.8168                                                                  
  2073    56.5032    1679(43)          1888.9075           58.8022                                                                  
  2074    56.5232    1160(37)          1348.4360           58.7876                                                                  
  2075    56.5432    773(31)           959.2006           58.7731                                                                   
  2076    56.5632    541(27)           704.9526           58.7585                                                                   
  2077    56.5832    418(23)           546.1653           58.7440                                                                   
  2078    56.6032    334(21)           445.6915           58.7296                                                                   
  2079    56.6232    308(19)           378.1994           58.7151                                                                   
  2080    56.6432    250(18)           329.4644           58.7007                                                                   
  2081    56.6632    243(17)           292.2280           58.6863                                                                   
  2082    56.6832    199(16)           247.0629           58.6720                                                                   
  2083    56.7032    175(15)           224.0294           58.6577                                                                   
  2084    56.7232    168(14)           205.1138           58.6434                                                                   
  2085    56.7432    153(14)           189.3686           58.6291                                                                   
  2086    56.7632    138(13)           176.1069           58.6149                                                                   
  2087    56.7832    148(13)           164.8212           58.6007                                                                   
  2088    56.8032    128(12)           155.1290           58.5865                                                                   
  2089    56.8232    131(12)           138.7124           58.5723                                                                   
  2090    56.8432    120(11)           131.8501           58.5582                                                                   
  2091    56.8632    106(11)           125.8446           58.5441                                                                   
  2092    56.8832    103(9)            87.9795           58.5300                                                                    
  2093    56.9032    105(9)            85.4251           58.5160                                                                    
  2094    56.9232    105(9)            83.1843           58.5020                                                                    
  2095    56.9432    99(9)            81.2077           58.4880                                                                     
  2096    56.9632    106(9)            79.4554           58.4740                                                                    
  2097    56.9832    92(9)            77.8945           58.4601                                                                     
  2098    57.0032    82(9)            76.4981           58.4462                                                                     
  2099    57.0232    92(8)            58.4323           58.4323                                                                     
  2100    57.0432    85(8)            58.4184           58.4184                                                                     
  2101    57.0632    78(8)            58.4046           58.4046                                                                     
  2102    57.0832    82(8)            58.3908           58.3908                                                                     
  2103    57.1032    95(8)            58.3771           58.3771                                                                     
  2104    57.1232    73(8)            58.3633           58.3633                                                                     
  2105    57.1432    74(8)            58.3496           58.3496                                                                     
  2106    57.1632    79(8)            58.3359           58.3359                                                                     
  2107    57.1832    81(8)            58.3223           58.3223                                                                     
  2108    57.2032    75(8)            58.3086           58.3086                                                                     
  2109    57.2232    81(8)            58.2950           58.2950                                                                     
  2110    57.2432    79(8)            58.2814           58.2814                                                                     
  2111    57.2632    76(8)            58.2679           58.2679                                                                     
  2112    57.2832    75(8)            58.2544           58.2544                                                                     
  2113    57.3032    75(8)            58.2409           58.2409                                                                     
  2114    57.3232    77(8)            58.2274           58.2274                                                                     
  2115    57.3432    71(8)            58.2140           58.2140                                                                     
  2116    57.3632    72(8)            58.2005           58.2005                                                                     
  2117    57.3832    71(8)            58.1871           58.1871                                                                     
  2118    57.4032    74(8)            58.1738           58.1738                                                                     
  2119    57.4232    64(8)            58.1604           58.1604                                                                     
  2120    57.4432    73(8)            58.1471           58.1471                                                                     
  2121    57.4632    73(8)            58.1338           58.1338                                                                     
  2122    57.4832    77(8)            58.1206           58.1206                                                                     
  2123    57.5032    83(8)            58.1074           58.1074                                                                     
  2124    57.5232    64(8)            58.0941           58.0941                                                                     
  2125    57.5432    66(8)            58.0810           58.0810                                                                     
  2126    57.5632    68(8)            58.0678           58.0678                                                                     
  2127    57.5832    62(8)            58.0547           58.0547                                                                     
  2128    57.6032    78(8)            58.0416           58.0416                                                                     
  2129    57.6232    54(8)            58.0285           58.0285                                                                     
  2130    57.6432    68(8)            58.0155           58.0155                                                                     
  2131    57.6632    72(8)            58.0024           58.0024                                                                     
  2132    57.6832    71(8)            57.9894           57.9894                                                                     
  2133    57.7032    59(8)            57.9765           57.9765                                                                     
  2134    57.7232    61(8)            57.9635           57.9635                                                                     
  2135    57.7432    63(8)            57.9506           57.9506                                                                     
  2136    57.7632    62(8)            57.9377           57.9377                                                                     
  2137    57.7832    67(8)            57.9248           57.9248                                                                     
  2138    57.8032    59(8)            57.9120           57.9120                                                                     
  2139    57.8232    69(8)            57.8992           57.8992                                                                     
  2140    57.8432    61(8)            57.8864           57.8864                                                                     
  2141    57.8632    66(8)            57.8736           57.8736                                                                     
  2142    57.8832    70(8)            57.8609           57.8609                                                                     
  2143    57.9032    64(8)            57.8482           57.8482                                                                     
  2144    57.9232    61(8)            57.8355           57.8355                                                                     
  2145    57.9432    68(8)            57.8228           57.8228                                                                     
  2146    57.9632    62(8)            57.8102           57.8102                                                                     
  2147    57.9832    62(8)            57.7975           57.7975                                                                     
  2148    58.0032    58(8)            57.7850           57.7850                                                                     
  2149    58.0232    59(8)            57.7724           57.7724                                                                     
  2150    58.0432    69(8)            57.7598           57.7598                                                                     
  2151    58.0632    72(8)            57.7473           57.7473                                                                     
  2152    58.0832    70(8)            57.7348           57.7348                                                                     
  2153    58.1032    54(8)            57.7224           57.7224                                                                     
  2154    58.1232    63(8)            57.7099           57.7099                                                                     
  2155    58.1432    57(8)            57.6975           57.6975                                                                     
  2156    58.1632    60(8)            57.6851           57.6851                                                                     
  2157    58.1832    64(8)            57.6728           57.6728                                                                     
  2158    58.2032    55(8)            57.6604           57.6604                                                                     
  2159    58.2232    52(8)            57.6481           57.6481                                                                     
  2160    58.2432    73(8)            57.6358           57.6358                                                                     
  2161    58.2632    62(8)            57.6235           57.6235                                                                     
  2162    58.2832    69(8)            57.6113           57.6113                                                                     
  2163    58.3032    56(8)            57.5991           57.5991                                                                     
  2164    58.3232    60(8)            57.5869           57.5869                                                                     
  2165    58.3432    57(8)            57.5747           57.5747                                                                     
  2166    58.3632    59(8)            57.5626           57.5626                                                                     
  2167    58.3832    66(8)            57.5504           57.5504                                                                     
  2168    58.4032    59(8)            57.5383           57.5383                                                                     
  2169    58.4232    57(8)            57.5263           57.5263                                                                     
  2170    58.4432    60(8)            57.5142           57.5142                                                                     
  2171    58.4632    68(8)            57.5022           57.5022                                                                     
  2172    58.4832    53(8)            57.4902           57.4902                                                                     
  2173    58.5032    52(8)            57.4782           57.4782                                                                     
  2174    58.5232    51(8)            57.4663           57.4663                                                                     
  2175    58.5432    59(8)            57.4543           57.4543                                                                     
  2176    58.5632    58(8)            57.4424           57.4424                                                                     
  2177    58.5832    53(8)            57.4305           57.4305                                                                     
  2178    58.6032    61(8)            57.4187           57.4187                                                                     
  2179    58.6232    54(8)            57.4068           57.4068                                                                     
  2180    58.6432    61(8)            57.3950           57.3950                                                                     
  2181    58.6632    60(8)            57.3832           57.3832                                                                     
  2182    58.6832    55(8)            57.3715           57.3715                                                                     
  2183    58.7032    58(8)            57.3597           57.3597                                                                     
  2184    58.7232    63(8)            57.3480           57.3480                                                                     
  2185    58.7432    69(8)            57.3363           57.3363                                                                     
  2186    58.7632    63(8)            57.3246           57.3246                                                                     
  2187    58.7832    68(8)            57.3130           57.3130                                                                     
  2188    58.8032    60(8)            57.3014           57.3014                                                                     
  2189    58.8232    67(8)            57.2898           57.2898                                                                     
  2190    58.8432    63(8)            57.2782           57.2782                                                                     
  2191    58.8632    69(8)            57.2666           57.2666                                                                     
  2192    58.8832    65(8)            57.2551           57.2551                                                                     
  2193    58.9032    65(8)            57.2436           57.2436                                                                     
  2194    58.9232    64(8)            57.2321           57.2321                                                                     
  2195    58.9432    51(8)            57.2206           57.2206                                                                     
  2196    58.9632    52(8)            57.2092           57.2092                                                                     
  2197    58.9832    58(8)            57.1978           57.1978                                                                     
  2198    59.0032    67(8)            57.1864           57.1864                                                                     
  2199    59.0232    59(8)            57.1750           57.1750                                                                     
  2200    59.0432    58(8)            57.1637           57.1637                                                                     
  2201    59.0632    67(8)            57.1524           57.1524                                                                     
  2202    59.0832    72(8)            57.1410           57.1410                                                                     
  2203    59.1032    59(8)            57.1298           57.1298                                                                     
  2204    59.1232    62(8)            57.1185           57.1185                                                                     
  2205    59.1432    59(8)            57.1073           57.1073                                                                     
  2206    59.1632    55(8)            57.0961           57.0961                                                                     
  2207    59.1832    61(8)            57.0849           57.0849                                                                     
  2208    59.2032    52(8)            57.0737           57.0737                                                                     
  2209    59.2232    53(8)            57.0626           57.0626                                                                     
  2210    59.2432    61(8)            57.0514           57.0514                                                                     
  2211    59.2632    58(8)            57.0403           57.0403                                                                     
  2212    59.2832    51(8)            57.0293           57.0293                                                                     
  2213    59.3032    53(8)            57.0182           57.0182                                                                     
  2214    59.3232    55(8)            57.0072           57.0072                                                                     
  2215    59.3432    58(8)            56.9961           56.9961                                                                     
  2216    59.3632    61(8)            56.9852           56.9852                                                                     
  2217    59.3832    52(8)            56.9742           56.9742                                                                     
  2218    59.4032    45(8)            56.9632           56.9632                                                                     
  2219    59.4232    50(8)            56.9523           56.9523                                                                     
  2220    59.4432    54(8)            56.9414           56.9414                                                                     
  2221    59.4632    55(8)            56.9305           56.9305                                                                     
  2222    59.4832    55(8)            56.9197           56.9197                                                                     
  2223    59.5032    60(8)            56.9088           56.9088                                                                     
  2224    59.5232    55(8)            56.8980           56.8980                                                                     
  2225    59.5432    55(8)            56.8872           56.8872                                                                     
  2226    59.5632    52(8)            56.8764           56.8764                                                                     
  2227    59.5832    50(8)            56.8657           56.8657                                                                     
  2228    59.6032    49(8)            56.8550           56.8550                                                                     
  2229    59.6232    50(8)            56.8443           56.8443                                                                     
  2230    59.6432    62(8)            56.8336           56.8336                                                                     
  2231    59.6632    55(8)            56.8229           56.8229                                                                     
  2232    59.6832    55(8)            56.8123           56.8123                                                                     
  2233    59.7032    52(8)            56.8016           56.8016                                                                     
  2234    59.7232    38(8)            56.7910           56.7910                                                                     
  2235    59.7432    54(8)            56.7805           56.7805                                                                     
  2236    59.7632    61(8)            56.7699           56.7699                                                                     
  2237    59.7832    52(8)            56.7594           56.7594                                                                     
  2238    59.8032    49(8)            56.7488           56.7488                                                                     
  2239    59.8232    49(8)            56.7384           56.7384                                                                     
  2240    59.8432    55(8)            56.7279           56.7279                                                                     
  2241    59.8632    54(8)            56.7174           56.7174                                                                     
  2242    59.8832    50(8)            56.7070           56.7070                                                                     
  2243    59.9032    54(8)            56.6966           56.6966                                                                     
  2244    59.9232    57(8)            56.6862           56.6862                                                                     
  2245    59.9432    46(8)            56.6758           56.6758                                                                     
  2246    59.9632    60(8)            56.6655           56.6655                                                                     
  2247    59.9832    52(8)            56.6552           56.6552                                                                     
  2248    60.0032    54(8)            56.6448           56.6448                                                                     
  2249    60.0232    52(8)            56.6346           56.6346                                                                     
  2250    60.0432    55(8)            56.6243           56.6243                                                                     
  2251    60.0632    52(8)            56.6141           56.6141                                                                     
  2252    60.0832    46(8)            56.6038           56.6038                                                                     
  2253    60.1032    43(8)            56.5936           56.5936                                                                     
  2254    60.1232    49(8)            56.5834           56.5834                                                                     
  2255    60.1432    50(8)            56.5733           56.5733                                                                     
  2256    60.1632    51(8)            56.5631           56.5631                                                                     
  2257    60.1832    42(8)            56.5530           56.5530                                                                     
  2258    60.2032    61(8)            56.5429           56.5429                                                                     
  2259    60.2232    44(8)            56.5328           56.5328                                                                     
  2260    60.2432    57(8)            56.5228           56.5228                                                                     
  2261    60.2632    46(8)            56.5127           56.5127                                                                     
  2262    60.2832    45(8)            56.5027           56.5027                                                                     
  2263    60.3032    51(8)            56.4927           56.4927                                                                     
  2264    60.3232    48(8)            56.4827           56.4827                                                                     
  2265    60.3432    56(8)            56.4728           56.4728                                                                     
  2266    60.3632    52(8)            56.4628           56.4628                                                                     
  2267    60.3832    54(8)            56.4529           56.4529                                                                     
  2268    60.4032    48(8)            56.4430           56.4430                                                                     
  2269    60.4232    56(8)            56.4331           56.4331                                                                     
  2270    60.4432    49(8)            56.4233           56.4233                                                                     
  2271    60.4632    48(8)            56.4134           56.4134                                                                     
  2272    60.4832    45(8)            56.4036           56.4036                                                                     
  2273    60.5032    53(8)            56.3938           56.3938                                                                     
  2274    60.5232    49(8)            56.3840           56.3840                                                                     
  2275    60.5432    53(8)            56.3743           56.3743                                                                     
  2276    60.5632    54(8)            56.3646           56.3646                                                                     
  2277    60.5832    48(8)            56.3548           56.3548                                                                     
  2278    60.6032    55(8)            56.3451           56.3451                                                                     
  2279    60.6232    51(8)            56.3355           56.3355                                                                     
  2280    60.6432    61(8)            56.3258           56.3258                                                                     
  2281    60.6632    47(8)            56.3161           56.3161                                                                     
  2282    60.6832    52(8)            56.3065           56.3065                                                                     
  2283    60.7032    63(8)            56.2969           56.2969                                                                     
  2284    60.7232    55(8)            56.2873           56.2873                                                                     
  2285    60.7432    62(8)            56.2778           56.2778                                                                     
  2286    60.7632    51(8)            56.2682           56.2682                                                                     
  2287    60.7832    56(8)            56.2587           56.2587                                                                     
  2288    60.8032    51(7)            56.2492           56.2492                                                                     
  2289    60.8232    59(7)            56.2397           56.2397                                                                     
  2290    60.8432    53(7)            56.2302           56.2302                                                                     
  2291    60.8632    49(7)            56.2208           56.2208                                                                     
  2292    60.8832    48(7)            56.2114           56.2114                                                                     
  2293    60.9032    46(7)            56.2020           56.2020                                                                     
  2294    60.9232    44(7)            56.1926           56.1926                                                                     
  2295    60.9432    58(7)            56.1832           56.1832                                                                     
  2296    60.9632    50(7)            56.1738           56.1738                                                                     
  2297    60.9832    53(7)            56.1645           56.1645                                                                     
  2298    61.0032    55(7)            56.1552           56.1552                                                                     
  2299    61.0232    55(7)            56.1459           56.1459                                                                     
  2300    61.0432    50(7)            56.1366           56.1366                                                                     
  2301    61.0632    47(7)            56.1274           56.1274                                                                     
  2302    61.0832    47(7)            56.1181           56.1181                                                                     
  2303    61.1032    50(7)            56.1089           56.1089                                                                     
  2304    61.1232    62(7)            56.0997           56.0997                                                                     
  2305    61.1432    38(7)            56.0905           56.0905                                                                     
  2306    61.1632    54(7)            56.0813           56.0813                                                                     
  2307    61.1832    47(7)            56.0722           56.0722                                                                     
  2308    61.2032    52(7)            56.0631           56.0631                                                                     
  2309    61.2232    50(7)            56.0540           56.0540                                                                     
  2310    61.2432    62(7)            56.0449           56.0449                                                                     
  2311    61.2632    53(7)            56.0358           56.0358                                                                     
  2312    61.2832    58(7)            56.0267           56.0267                                                                     
  2313    61.3032    52(7)            56.0177           56.0177                                                                     
  2314    61.3232    57(7)            56.0087           56.0087                                                                     
  2315    61.3432    54(7)            55.9997           55.9997                                                                     
  2316    61.3632    44(7)            55.9907           55.9907                                                                     
  2317    61.3832    44(7)            55.9818           55.9818                                                                     
  2318    61.4032    51(7)            55.9728           55.9728                                                                     
  2319    61.4232    55(7)            55.9639           55.9639                                                                     
  2320    61.4432    56(7)            55.9550           55.9550                                                                     
  2321    61.4632    53(7)            55.9461           55.9461                                                                     
  2322    61.4832    51(7)            55.9372           55.9372                                                                     
  2323    61.5032    46(7)            55.9284           55.9284                                                                     
  2324    61.5232    53(7)            55.9195           55.9195                                                                     
  2325    61.5432    50(7)            55.9107           55.9107                                                                     
  2326    61.5632    52(7)            55.9019           55.9019                                                                     
  2327    61.5832    47(7)            55.8931           55.8931                                                                     
  2328    61.6032    45(7)            55.8844           55.8844                                                                     
  2329    61.6232    45(7)            55.8756           55.8756                                                                     
  2330    61.6432    43(7)            55.8669           55.8669                                                                     
  2331    61.6632    47(7)            55.8582           55.8582                                                                     
  2332    61.6832    46(7)            55.8495           55.8495                                                                     
  2333    61.7032    48(7)            55.8408           55.8408                                                                     
  2334    61.7232    52(7)            55.8322           55.8322                                                                     
  2335    61.7432    49(7)            55.8235           55.8235                                                                     
  2336    61.7632    41(7)            55.8149           55.8149                                                                     
  2337    61.7832    49(7)            55.8063           55.8063                                                                     
  2338    61.8032    44(7)            55.7977           55.7977                                                                     
  2339    61.8232    38(7)            55.7891           55.7891                                                                     
  2340    61.8432    49(7)            55.7806           55.7806                                                                     
  2341    61.8632    47(7)            55.7721           55.7721                                                                     
  2342    61.8832    48(7)            55.7635           55.7635                                                                     
  2343    61.9032    47(7)            55.7550           55.7550                                                                     
  2344    61.9232    41(7)            55.7466           55.7466                                                                     
  2345    61.9432    54(7)            55.7381           55.7381                                                                     
  2346    61.9632    37(7)            55.7297           55.7297                                                                     
  2347    61.9832    42(7)            55.7212           55.7212                                                                     
  2348    62.0032    45(7)            55.7128           55.7128                                                                     
  2349    62.0232    43(7)            55.7044           55.7044                                                                     
  2350    62.0432    47(7)            55.6961           55.6961                                                                     
  2351    62.0632    42(7)            55.6877           55.6877                                                                     
  2352    62.0832    48(7)            55.6794           55.6794                                                                     
  2353    62.1032    42(7)            55.6710           55.6710                                                                     
  2354    62.1232    52(7)            55.6627           55.6627                                                                     
  2355    62.1432    46(7)            55.6544           55.6544                                                                     
  2356    62.1632    43(7)            55.6462           55.6462                                                                     
  2357    62.1832    45(7)            55.6379           55.6379                                                                     
  2358    62.2032    49(7)            55.6297           55.6297                                                                     
  2359    62.2232    46(7)            55.6214           55.6214                                                                     
  2360    62.2432    46(7)            55.6132           55.6132                                                                     
  2361    62.2632    44(7)            55.6050           55.6050                                                                     
  2362    62.2832    40(7)            55.5969           55.5969                                                                     
  2363    62.3032    36(7)            55.5887           55.5887                                                                     
  2364    62.3232    45(7)            55.5806           55.5806                                                                     
  2365    62.3432    53(7)            55.5724           55.5724                                                                     
  2366    62.3632    51(7)            55.5643           55.5643                                                                     
  2367    62.3832    49(7)            55.5563           55.5563                                                                     
  2368    62.4032    48(7)            55.5482           55.5482                                                                     
  2369    62.4232    40(7)            55.5401           55.5401                                                                     
  2370    62.4432    48(7)            55.5321           55.5321                                                                     
  2371    62.4632    36(7)            55.5241           55.5241                                                                     
  2372    62.4832    49(7)            55.5161           55.5161                                                                     
  2373    62.5032    49(7)            55.5081           55.5081                                                                     
  2374    62.5232    48(7)            55.5001           55.5001                                                                     
  2375    62.5432    44(7)            55.4921           55.4921                                                                     
  2376    62.5632    48(7)            55.4842           55.4842                                                                     
  2377    62.5832    52(7)            55.4763           55.4763                                                                     
  2378    62.6032    42(7)            55.4684           55.4684                                                                     
  2379    62.6232    42(7)            55.4605           55.4605                                                                     
  2380    62.6432    48(7)            55.4526           55.4526                                                                     
  2381    62.6632    51(7)            55.4448           55.4448                                                                     
  2382    62.6832    43(7)            55.4369           55.4369                                                                     
  2383    62.7032    33(7)            55.4291           55.4291                                                                     
  2384    62.7232    43(7)            55.4213           55.4213                                                                     
  2385    62.7432    46(7)            55.4135           55.4135                                                                     
  2386    62.7632    53(7)            55.4057           55.4057                                                                     
  2387    62.7832    56(7)            55.3980           55.3980                                                                     
  2388    62.8032    46(7)            55.3902           55.3902                                                                     
  2389    62.8232    50(7)            55.3825           55.3825                                                                     
  2390    62.8432    59(7)            55.3748           55.3748                                                                     
  2391    62.8632    41(7)            55.3671           55.3671                                                                     
  2392    62.8832    47(7)            55.3594           55.3594                                                                     
  2393    62.9032    53(7)            55.3517           55.3517                                                                     
  2394    62.9232    41(7)            55.3441           55.3441                                                                     
  2395    62.9432    54(7)            55.3364           55.3364                                                                     
  2396    62.9632    47(7)            55.3288           55.3288                                                                     
  2397    62.9832    49(7)            55.3212           55.3212                                                                     
  2398    63.0032    55(7)            55.3137           55.3137                                                                     
  2399    63.0232    50(7)            55.3061           55.3061                                                                     
  2400    63.0432    41(7)            55.2985           55.2985                                                                     
  2401    63.0632    44(7)            55.2910           55.2910                                                                     
  2402    63.0832    60(7)            55.2835           55.2835                                                                     
  2403    63.1032    52(7)            55.2760           55.2760                                                                     
  2404    63.1232    51(7)            55.2685           55.2685                                                                     
  2405    63.1432    48(7)            55.2610           55.2610                                                                     
  2406    63.1632    48(7)            55.2535           55.2535                                                                     
  2407    63.1832    36(7)            55.2461           55.2461                                                                     
  2408    63.2032    55(7)            55.2387           55.2387                                                                     
  2409    63.2232    54(7)            55.2313           55.2313                                                                     
  2410    63.2432    56(7)            55.2239           55.2239                                                                     
  2411    63.2632    50(7)            55.2165           55.2165                                                                     
  2412    63.2832    48(7)            55.2091           55.2091                                                                     
  2413    63.3032    54(7)            55.2018           55.2018                                                                     
  2414    63.3232    53(7)            55.1944           55.1944                                                                     
  2415    63.3432    52(7)            55.1871           55.1871                                                                     
  2416    63.3632    53(7)            55.1798           55.1798                                                                     
  2417    63.3832    54(7)            55.1725           55.1725                                                                     
  2418    63.4032    55(7)            55.1652           55.1652                                                                     
  2419    63.4232    56(7)            55.1580           55.1580                                                                     
  2420    63.4432    52(7)            55.1507           55.1507                                                                     
  2421    63.4632    49(7)            55.1435           55.1435                                                                     
  2422    63.4832    44(7)            55.1363           55.1363                                                                     
  2423    63.5032    50(7)            55.1291           55.1291                                                                     
  2424    63.5232    53(7)            55.1219           55.1219                                                                     
  2425    63.5432    59(7)            55.1148           55.1148                                                                     
  2426    63.5632    49(7)            55.1076           55.1076                                                                     
  2427    63.5832    51(7)            55.1005           55.1005                                                                     
  2428    63.6032    62(7)            55.0933           55.0933                                                                     
  2429    63.6232    49(7)            55.0863           55.0863                                                                     
  2430    63.6432    61(7)            55.0792           55.0792                                                                     
  2431    63.6632    53(7)            55.0721           55.0721                                                                     
  2432    63.6832    50(7)            55.0650           55.0650                                                                     
  2433    63.7032    66(7)            55.0580           55.0580                                                                     
  2434    63.7232    63(7)            55.0509           55.0509                                                                     
  2435    63.7432    50(7)            55.0439           55.0439                                                                     
  2436    63.7632    54(7)            55.0369           55.0369                                                                     
  2437    63.7832    59(7)            55.0299           55.0299                                                                     
  2438    63.8032    57(7)            55.0230           55.0230                                                                     
  2439    63.8232    56(7)            55.0160           55.0160                                                                     
  2440    63.8432    59(7)            55.0091           55.0091                                                                     
  2441    63.8632    62(7)            55.0021           55.0021                                                                     
  2442    63.8832    51(7)            54.9952           54.9952                                                                     
  2443    63.9032    58(7)            54.9883           54.9883                                                                     
  2444    63.9232    60(7)            54.9814           54.9814                                                                     
  2445    63.9432    57(7)            54.9746           54.9746                                                                     
  2446    63.9632    65(7)            54.9677           54.9677                                                                     
  2447    63.9832    60(7)            54.9609           54.9609                                                                     
  2448    64.0032    55(7)            54.9540           54.9540                                                                     
  2449    64.0232    49(7)            54.9472           54.9472                                                                     
  2450    64.0432    54(7)            54.9404           54.9404                                                                     
  2451    64.0632    61(7)            54.9337           54.9337                                                                     
  2452    64.0832    57(7)            54.9269           54.9269                                                                     
  2453    64.1032    57(7)            54.9201           54.9201                                                                     
  2454    64.1232    65(7)            54.9134           54.9134                                                                     
  2455    64.1432    48(7)            54.9067           54.9067                                                                     
  2456    64.1632    57(7)            54.9000           54.9000                                                                     
  2457    64.1832    62(7)            54.8933           54.8933                                                                     
  2458    64.2032    56(7)            54.8866           54.8866                                                                     
  2459    64.2232    61(7)            54.8799           54.8799                                                                     
  2460    64.2432    51(7)            54.8733           54.8733                                                                     
  2461    64.2632    60(7)            54.8666           54.8666                                                                     
  2462    64.2832    51(7)            54.8600           54.8600                                                                     
  2463    64.3032    54(7)            54.8534           54.8534                                                                     
  2464    64.3232    60(7)            54.8468           54.8468                                                                     
  2465    64.3432    61(7)            54.8402           54.8402                                                                     
  2466    64.3632    67(7)            54.8336           54.8336                                                                     
  2467    64.3832    77(7)            54.8271           54.8271                                                                     
  2468    64.4032    51(7)            54.8205           54.8205                                                                     
  2469    64.4232    53(7)            54.8140           54.8140                                                                     
  2470    64.4432    55(7)            54.8075           54.8075                                                                     
  2471    64.4632    47(7)            54.8010           54.8010                                                                     
  2472    64.4832    57(7)            54.7945           54.7945                                                                     
  2473    64.5032    54(7)            54.7881           54.7881                                                                     
  2474    64.5232    60(7)            54.7816           54.7816                                                                     
  2475    64.5432    62(7)            54.7752           54.7752                                                                     
  2476    64.5632    62(7)            54.7687           54.7687                                                                     
  2477    64.5832    53(7)            54.7623           54.7623                                                                     
  2478    64.6032    59(7)            54.7559           54.7559                                                                     
  2479    64.6232    55(7)            54.7495           54.7495                                                                     
  2480    64.6432    62(7)            54.7432           54.7432                                                                     
  2481    64.6632    60(7)            54.7368           54.7368                                                                     
  2482    64.6832    56(7)            54.7305           54.7305                                                                     
  2483    64.7032    53(7)            54.7241           54.7241                                                                     
  2484    64.7232    58(7)            54.7178           54.7178                                                                     
  2485    64.7432    54(7)            54.7115           54.7115                                                                     
  2486    64.7632    60(7)            54.7052           54.7052                                                                     
  2487    64.7832    70(7)            54.6990           54.6990                                                                     
  2488    64.8032    69(7)            54.6927           54.6927                                                                     
  2489    64.8232    59(7)            54.6865           54.6865                                                                     
  2490    64.8432    64(7)            54.6802           54.6802                                                                     
  2491    64.8632    60(7)            54.6740           54.6740                                                                     
  2492    64.8832    65(7)            54.6678           54.6678                                                                     
  2493    64.9032    45(7)            54.6616           54.6616                                                                     
  2494    64.9232    61(7)            54.6554           54.6554                                                                     
  2495    64.9432    70(7)            54.6492           54.6492                                                                     
  2496    64.9632    67(7)            54.6431           54.6431                                                                     
  2497    64.9832    69(7)            54.6370           54.6370                                                                     
  2498    65.0032    66(7)            54.6308           54.6308                                                                     
  2499    65.0232    80(7)            54.6247           54.6247                                                                     
  2500    65.0432    82(7)            54.6186           54.6186                                                                     
  2501    65.0632    83(9)            74.2584           54.6125                                                                     
  2502    65.0832    79(9)            75.3777           54.6065                                                                     
  2503    65.1032    63(9)            76.5965           54.6004                                                                     
  2504    65.1232    74(9)            77.9260           54.5943                                                                     
  2505    65.1432    77(9)            79.3804           54.5883                                                                     
  2506    65.1632    73(9)            80.9763           54.5823                                                                     
  2507    65.1832    92(9)            82.7312           54.5763                                                                     
  2508    65.2032    87(9)            84.6681           54.5703                                                                     
  2509    65.2232    101(9)            86.8113           54.5643                                                                    
  2510    65.2432    90(10)            98.9550           54.5583                                                                    
  2511    65.2632    87(10)           102.1666           54.5524                                                                    
  2512    65.2832    102(10)           105.7436           54.5465                                                                   
  2513    65.3032    93(10)           109.7452           54.5405                                                                    
  2514    65.3232    94(11)           114.2378           54.5346                                                                    
  2515    65.3432    119(11)           119.3094           54.5287                                                                   
  2516    65.3632    114(11)           125.0595           54.5228                                                                   
  2517    65.3832    119(11)           131.6200           54.5170                                                                   
  2518    65.4032    146(12)           139.1448           54.5111                                                                   
  2519    65.4232    152(12)           147.8394           54.5052                                                                   
  2520    65.4432    161(13)           157.9509           54.4994                                                                   
  2521    65.4632    164(13)           169.8086           54.4936                                                                   
  2522    65.4832    191(14)           183.8444           54.4878                                                                   
  2523    65.5032    197(14)           200.6144           54.4820                                                                   
  2524    65.5232    222(15)           231.4923           54.4762                                                                   
  2525    65.5432    224(16)           257.1118           54.4704                                                                   
  2526    65.5632    249(17)           289.1218           54.4647                                                                   
  2527    65.5832    306(18)           330.1791           54.4589                                                                   
  2528    65.6032    323(20)           384.6946           54.4532                                                                   
  2529    65.6232    386(21)           459.6673           54.4475                                                                   
  2530    65.6432    464(24)           565.7863           54.4418                                                                   
  2531    65.6632    577(27)           717.7916           54.4361                                                                   
  2532    65.6832    737(31)           933.1227           54.4304                                                                   
  2533    65.7032    1076(35)          1228.6256           54.4247                                                                  
  2534    65.7232    1475(40)          1616.3002           54.4191                                                                  
  2535    65.7432    1889(45)          2060.1799           54.4134                                                                  
  2536    65.7632    2190(50)          2467.8459           54.4078                                                                  
  2537    65.7832    2270(52)          2666.8552           54.4022                                                                  
  2538    65.8032    2141(51)          2552.6113           54.3966                                                                  
  2539    65.8232    1811(47)          2227.2917           54.3910                                                                  
  2540    65.8432    1426(43)          1874.4492           54.3854                                                                  
  2541    65.8632    1190(40)          1607.4467           54.3798                                                                  
  2542    65.8832    1184(38)          1464.1653           54.3743                                                                  
  2543    65.9032    1207(38)          1443.8474           54.3687                                                                  
  2544    65.9232    1316(39)          1519.7257           54.3632                                                                  
  2545    65.9432    1445(40)          1629.5844           54.3577                                                                  
  2546    65.9632    1503(41)          1675.1157           54.3522                                                                  
  2547    65.9832    1447(40)          1589.2042           54.3467                                                                  
  2548    66.0032    1283(38)          1411.6199           54.3412                                                                  
  2549    66.0232    1117(35)          1235.4138           54.3358                                                                  
  2550    66.0432    1013(34)          1127.3752           54.3303                                                                  
  2551    66.0632    1046(33)          1119.5665           54.3249                                                                  
  2552    66.0832    1158(35)          1222.9548           54.3194                                                                  
  2553    66.1032    1462(38)          1425.1174           54.3140                                                                  
  2554    66.1232    1865(41)          1662.8615           54.3086                                                                  
  2555    66.1432    1921(42)          1792.2089           54.3032                                                                  
  2556    66.1632    1553(41)          1686.2961           54.2979                                                                  
  2557    66.1832    1217(38)          1411.4108           54.2925                                                                  
  2558    66.2032    867(34)          1123.0229           54.2871                                                                   
  2559    66.2232    632(30)           908.2276           54.2818                                                                   
  2560    66.2432    522(28)           790.8597           54.2765                                                                   
  2561    66.2632    586(28)           767.9136           54.2711                                                                   
  2562    66.2832    691(29)           821.8180           54.2658                                                                   
  2563    66.3032    887(30)           914.5045           54.2605                                                                   
  2564    66.3232    917(31)           971.6168           54.2553                                                                   
  2565    66.3432    785(30)           918.2725           54.2500                                                                   
  2566    66.3632    631(28)           770.8441           54.2447                                                                   
  2567    66.3832    452(25)           604.0992           54.2395                                                                   
  2568    66.4032    313(22)           463.4380           54.2343                                                                   
  2569    66.4232    231(19)           359.3441           54.2290                                                                   
  2570    66.4432    162(17)           287.6322           54.2238                                                                   
  2571    66.4632    148(15)           239.7256           54.2186                                                                   
  2572    66.4832    140(14)           207.4261           54.2135                                                                   
  2573    66.5032    137(14)           184.7222           54.2083                                                                   
  2574    66.5232    123(12)           149.1614           54.2031                                                                   
  2575    66.5432    101(12)           136.9370           54.1980                                                                   
  2576    66.5632    105(11)           127.1576           54.1929                                                                   
  2577    66.5832    104(11)           119.1519           54.1877                                                                   
  2578    66.6032    97(11)           112.4817           54.1826                                                                    
  2579    66.6232    80(10)           106.8551           54.1775                                                                    
  2580    66.6432    91(10)           102.0540           54.1724                                                                    
  2581    66.6632    92(10)            97.9163           54.1674                                                                    
  2582    66.6832    89(10)            94.3229           54.1623                                                                    
  2583    66.7032    90(9)            81.8246           54.1572                                                                     
  2584    66.7232    81(9)            79.5349           54.1522                                                                     
  2585    66.7432    87(9)            77.5223           54.1472                                                                     
  2586    66.7632    77(9)            75.7443           54.1422                                                                     
  2587    66.7832    76(8)            64.0092           54.1372                                                                     
  2588    66.8032    85(8)            63.2022           54.1322                                                                     
  2589    66.8232    96(8)            62.4889           54.1272                                                                     
  2590    66.8432    73(8)            61.8549           54.1222                                                                     
  2591    66.8632    78(8)            61.2892           54.1173                                                                     
  2592    66.8832    64(8)            60.7819           54.1123                                                                     
  2593    66.9032    79(8)            60.3256           54.1074                                                                     
  2594    66.9232    73(8)            59.9133           54.1025                                                                     
  2595    66.9432    73(8)            59.5398           54.0976                                                                     
  2596    66.9632    61(7)            54.0927           54.0927                                                                     
  2597    66.9832    66(7)            54.0878           54.0878                                                                     
  2598    67.0032    69(7)            54.0829           54.0829                                                                     
  2599    67.0232    67(7)            54.0780           54.0780                                                                     
  2600    67.0432    62(7)            54.0732           54.0732                                                                     
  2601    67.0632    74(7)            54.0684           54.0684                                                                     
  2602    67.0832    66(7)            54.0635           54.0635                                                                     
  2603    67.1032    64(7)            54.0587           54.0587                                                                     
  2604    67.1232    56(7)            54.0539           54.0539                                                                     
  2605    67.1432    60(7)            54.0491           54.0491                                                                     
  2606    67.1632    56(7)            54.0443           54.0443                                                                     
  2607    67.1832    56(7)            54.0396           54.0396                                                                     
  2608    67.2032    72(7)            54.0348           54.0348                                                                     
  2609    67.2232    58(7)            54.0301           54.0301                                                                     
  2610    67.2432    57(7)            54.0253           54.0253                                                                     
  2611    67.2632    58(7)            54.0206           54.0206                                                                     
  2612    67.2832    60(7)            54.0159           54.0159                                                                     
  2613    67.3032    53(7)            54.0112           54.0112                                                                     
  2614    67.3232    61(7)            54.0065           54.0065                                                                     
  2615    67.3432    56(7)            54.0018           54.0018                                                                     
  2616    67.3632    54(7)            53.9972           53.9972                                                                     
  2617    67.3832    56(7)            53.9925           53.9925                                                                     
  2618    67.4032    60(7)            53.9879           53.9879                                                                     
  2619    67.4232    58(7)            53.9832           53.9832                                                                     
  2620    67.4432    58(7)            53.9786           53.9786                                                                     
  2621    67.4632    51(7)            53.9740           53.9740                                                                     
  2622    67.4832    55(7)            53.9694           53.9694                                                                     
  2623    67.5032    57(7)            53.9648           53.9648                                                                     
  2624    67.5232    44(7)            53.9603           53.9603                                                                     
  2625    67.5432    59(7)            53.9557           53.9557                                                                     
  2626    67.5632    57(7)            53.9512           53.9512                                                                     
  2627    67.5832    57(7)            53.9466           53.9466                                                                     
  2628    67.6032    56(7)            53.9421           53.9421                                                                     
  2629    67.6232    64(7)            53.9376           53.9376                                                                     
  2630    67.6432    58(7)            53.9331           53.9331                                                                     
  2631    67.6632    71(7)            53.9286           53.9286                                                                     
  2632    67.6832    50(7)            53.9241           53.9241                                                                     
  2633    67.7032    58(7)            53.9196           53.9196                                                                     
  2634    67.7232    54(7)            53.9152           53.9152                                                                     
  2635    67.7432    57(7)            53.9107           53.9107                                                                     
  2636    67.7632    55(7)            53.9063           53.9063                                                                     
  2637    67.7832    50(7)            53.9018           53.9018                                                                     
  2638    67.8032    61(7)            53.8974           53.8974                                                                     
  2639    67.8232    61(7)            53.8930           53.8930                                                                     
  2640    67.8432    59(7)            53.8886           53.8886                                                                     
  2641    67.8632    59(7)            53.8842           53.8842                                                                     
  2642    67.8832    59(7)            53.8799           53.8799                                                                     
  2643    67.9032    59(7)            53.8755           53.8755                                                                     
  2644    67.9232    59(7)            53.8712           53.8712                                                                     
  2645    67.9432    65(7)            53.8668           53.8668                                                                     
  2646    67.9632    59(7)            53.8625           53.8625                                                                     
  2647    67.9832    60(7)            53.8582           53.8582                                                                     
  2648    68.0032    61(7)            53.8539           53.8539                                                                     
  2649    68.0232    52(7)            53.8496           53.8496                                                                     
  2650    68.0432    53(7)            53.8453           53.8453                                                                     
  2651    68.0632    52(7)            53.8410           53.8410                                                                     
  2652    68.0832    62(7)            53.8368           53.8368                                                                     
  2653    68.1032    58(7)            53.8325           53.8325                                                                     
  2654    68.1232    58(7)            53.8283           53.8283                                                                     
  2655    68.1432    58(7)            53.8241           53.8241                                                                     
  2656    68.1632    53(7)            53.8198           53.8198                                                                     
  2657    68.1832    54(7)            53.8156           53.8156                                                                     
  2658    68.2032    54(7)            53.8114           53.8114                                                                     
  2659    68.2232    56(7)            53.8073           53.8073                                                                     
  2660    68.2432    64(7)            53.8031           53.8031                                                                     
  2661    68.2632    54(7)            53.7989           53.7989                                                                     
  2662    68.2832    59(7)            53.7948           53.7948                                                                     
  2663    68.3032    56(7)            53.7906           53.7906                                                                     
  2664    68.3232    61(7)            53.7865           53.7865                                                                     
  2665    68.3432    41(7)            53.7824           53.7824                                                                     
  2666    68.3632    51(7)            53.7783           53.7783                                                                     
  2667    68.3832    52(7)            53.7742           53.7742                                                                     
  2668    68.4032    50(7)            53.7701           53.7701                                                                     
  2669    68.4232    50(7)            53.7660           53.7660                                                                     
  2670    68.4432    64(7)            53.7620           53.7620                                                                     
  2671    68.4632    59(7)            53.7579           53.7579                                                                     
  2672    68.4832    52(7)            53.7539           53.7539                                                                     
  2673    68.5032    61(7)            53.7498           53.7498                                                                     
  2674    68.5232    58(7)            53.7458           53.7458                                                                     
  2675    68.5432    47(7)            53.7418           53.7418                                                                     
  2676    68.5632    44(7)            53.7378           53.7378                                                                     
  2677    68.5832    50(7)            53.7338           53.7338                                                                     
  2678    68.6032    53(7)            53.7298           53.7298                                                                     
  2679    68.6232    66(7)            53.7259           53.7259                                                                     
  2680    68.6432    55(7)            53.7219           53.7219                                                                     
  2681    68.6632    60(7)            53.7180           53.7180                                                                     
  2682    68.6832    56(7)            53.7140           53.7140                                                                     
  2683    68.7032    57(7)            53.7101           53.7101                                                                     
  2684    68.7232    56(7)            53.7062           53.7062                                                                     
  2685    68.7432    54(7)            53.7023           53.7023                                                                     
  2686    68.7632    56(7)            53.6984           53.6984                                                                     
  2687    68.7832    50(7)            53.6945           53.6945                                                                     
  2688    68.8032    59(7)            53.6906           53.6906                                                                     
  2689    68.8232    55(7)            53.6868           53.6868                                                                     
  2690    68.8432    57(7)            53.6829           53.6829                                                                     
  2691    68.8632    48(7)            53.6791           53.6791                                                                     
  2692    68.8832    47(7)            53.6753           53.6753                                                                     
  2693    68.9032    57(7)            53.6715           53.6715                                                                     
  2694    68.9232    48(7)            53.6676           53.6676                                                                     
  2695    68.9432    49(7)            53.6638           53.6638                                                                     
  2696    68.9632    57(7)            53.6601           53.6601                                                                     
  2697    68.9832    59(7)            53.6563           53.6563                                                                     
  2698    69.0032    53(7)            53.6525           53.6525                                                                     
  2699    69.0232    48(7)            53.6488           53.6488                                                                     
  2700    69.0432    49(7)            53.6450           53.6450                                                                     
  2701    69.0632    57(7)            53.6413           53.6413                                                                     
  2702    69.0832    49(7)            53.6376           53.6376                                                                     
  2703    69.1032    51(7)            53.6339           53.6339                                                                     
  2704    69.1232    51(7)            53.6302           53.6302                                                                     
  2705    69.1432    59(7)            53.6265           53.6265                                                                     
  2706    69.1632    43(7)            53.6228           53.6228                                                                     
  2707    69.1832    55(7)            53.6191           53.6191                                                                     
  2708    69.2032    59(7)            53.6154           53.6154                                                                     
  2709    69.2232    62(7)            53.6118           53.6118                                                                     
  2710    69.2432    53(7)            53.6082           53.6082                                                                     
  2711    69.2632    51(7)            53.6045           53.6045                                                                     
  2712    69.2832    52(7)            53.6009           53.6009                                                                     
  2713    69.3032    48(7)            54.3190           53.5973                                                                     
  2714    69.3232    47(7)            54.3622           53.5937                                                                     
  2715    69.3432    50(7)            54.4102           53.5901                                                                     
  2716    69.3632    59(7)            54.4634           53.5866                                                                     
  2717    69.3832    48(7)            54.5229           53.5830                                                                     
  2718    69.4032    45(7)            54.5892           53.5794                                                                     
  2719    69.4232    48(7)            54.6637           53.5759                                                                     
  2720    69.4432    52(7)            54.7476           53.5723                                                                     
  2721    69.4632    57(7)            54.8423           53.5688                                                                     
  2722    69.4832    62(7)            54.9498           53.5653                                                                     
  2723    69.5032    54(7)            55.4366           53.5618                                                                     
  2724    69.5232    49(7)            55.6010           53.5583                                                                     
  2725    69.5432    57(7)            55.7891           53.5548                                                                     
  2726    69.5632    64(7)            56.0058           53.5514                                                                     
  2727    69.5832    66(8)            56.2571           53.5479                                                                     
  2728    69.6032    63(8)            56.5507           53.5444                                                                     
  2729    69.6232    58(8)            56.8963           53.5410                                                                     
  2730    69.6432    56(8)            57.3070           53.5376                                                                     
  2731    69.6632    70(8)            57.8003           53.5341                                                                     
  2732    69.6832    58(8)            58.3992           53.5307                                                                     
  2733    69.7032    69(8)            59.1371           53.5273                                                                     
  2734    69.7232    63(8)            63.9058           53.5239                                                                     
  2735    69.7432    64(8)            65.3384           53.5206                                                                     
  2736    69.7632    62(8)            67.1940           53.5172                                                                     
  2737    69.7832    64(8)            69.7184           53.5138                                                                     
  2738    69.8032    82(9)            73.3387           53.5105                                                                     
  2739    69.8232    78(9)            78.7257           53.5071                                                                     
  2740    69.8432    89(9)            86.7966           53.5038                                                                     
  2741    69.8632    106(10)            99.5238           53.5005                                                                   
  2742    69.8832    110(11)           115.5520           53.4972                                                                   
  2743    69.9032    140(12)           134.9984           53.4939                                                                   
  2744    69.9232    154(12)           155.4271           53.4906                                                                   
  2745    69.9432    159(13)           164.2814           53.4873                                                                   
  2746    69.9632    172(13)           158.0569           53.4841                                                                   
  2747    69.9832    141(12)           142.7466           53.4808                                                                   
  2748    70.0032    124(11)           127.3647           53.4775                                                                   
  2749    70.0232    118(11)           116.4918           53.4743                                                                   
  2750    70.0432    126(11)           113.3574           53.4711                                                                   
  2751    70.0632    112(11)           114.5830           53.4679                                                                   
  2752    70.0832    128(11)           120.3399           53.4647                                                                   
  2753    70.1032    136(11)           129.6573           53.4615                                                                   
  2754    70.1232    150(12)           139.3590           53.4583                                                                   
  2755    70.1432    154(12)           144.6994           53.4551                                                                   
  2756    70.1632    160(12)           144.0070           53.4519                                                                   
  2757    70.1832    137(12)           141.2445           53.4488                                                                   
  2758    70.2032    142(12)           141.1354           53.4456                                                                   
  2759    70.2232    165(12)           146.6563           53.4425                                                                   
  2760    70.2432    184(13)           161.2430           53.4394                                                                   
  2761    70.2632    201(14)           186.1269           53.4362                                                                   
  2762    70.2832    249(15)           226.3767           53.4331                                                                   
  2763    70.3032    292(17)           286.4344           53.4300                                                                   
  2764    70.3232    415(19)           368.7158           53.4270                                                                   
  2765    70.3432    534(22)           468.4762           53.4239                                                                   
  2766    70.3632    602(24)           562.7704           53.4208                                                                   
  2767    70.3832    612(25)           606.7589           53.4178                                                                   
  2768    70.4032    566(24)           572.8856           53.4147                                                                   
  2769    70.4232    486(22)           490.6050           53.4117                                                                   
  2770    70.4432    415(20)           406.3047           53.4086                                                                   
  2771    70.4632    356(19)           344.6716           53.4056                                                                   
  2772    70.4832    333(18)           313.1794           53.4026                                                                   
  2773    70.5032    354(18)           312.5453           53.3996                                                                   
  2774    70.5232    405(18)           341.0157           53.3966                                                                   
  2775    70.5432    423(20)           393.9754           53.3937                                                                   
  2776    70.5632    498(21)           459.0873           53.3907                                                                   
  2777    70.5832    516(23)           514.5013           53.3877                                                                   
  2778    70.6032    566(23)           546.9657           53.3848                                                                   
  2779    70.6232    600(24)           563.7789           53.3819                                                                   
  2780    70.6432    571(24)           558.6892           53.3789                                                                   
  2781    70.6632    510(23)           516.7189           53.3760                                                                   
  2782    70.6832    441(21)           452.6437           53.3731                                                                   
  2783    70.7032    381(20)           393.5951           53.3702                                                                   
  2784    70.7232    344(19)           349.4128           53.3673                                                                   
  2785    70.7432    320(18)           317.8332           53.3645                                                                   
  2786    70.7632    315(17)           296.5746           53.3616                                                                   
  2787    70.7832    286(17)           286.7446           53.3587                                                                   
  2788    70.8032    272(17)           288.7742           53.3559                                                                   
  2789    70.8232    271(17)           298.2908           53.3530                                                                   
  2790    70.8432    258(17)           300.7328           53.3502                                                                   
  2791    70.8632    274(17)           283.7126           53.3474                                                                   
  2792    70.8832    212(16)           253.8777           53.3446                                                                   
  2793    70.9032    188(15)           224.3300           53.3418                                                                   
  2794    70.9232    177(14)           199.5415           53.3390                                                                   
  2795    70.9432    163(13)           178.1533           53.3362                                                                   
  2796    70.9632    140(13)           158.5883           53.3335                                                                   
  2797    70.9832    119(12)           140.9310           53.3307                                                                   
  2798    71.0032    121(11)           125.8151           53.3280                                                                   
  2799    71.0232    102(11)           113.4092           53.3252                                                                   
  2800    71.0432    89(10)           103.4815           53.3225                                                                    
  2801    71.0632    78(10)            92.0077           53.3198                                                                    
  2802    71.0832    67(9)            86.0300           53.3171                                                                     
  2803    71.1032    68(9)            81.3420           53.3144                                                                     
  2804    71.1232    59(9)            77.6429           53.3117                                                                     
  2805    71.1432    67(9)            74.6867           53.3090                                                                     
  2806    71.1632    57(9)            72.2859           53.3063                                                                     
  2807    71.1832    67(8)            70.3044           53.3037                                                                     
  2808    71.2032    54(8)            68.6415           53.3010                                                                     
  2809    71.2232    57(8)            67.2276           53.2984                                                                     
  2810    71.2432    51(8)            66.0106           53.2957                                                                     
  2811    71.2632    53(8)            61.2781           53.2931                                                                     
  2812    71.2832    59(8)            60.5681           53.2905                                                                     
  2813    71.3032    57(8)            59.9492           53.2879                                                                     
  2814    71.3232    54(8)            59.4066           53.2853                                                                     
  2815    71.3432    57(8)            58.9277           53.2827                                                                     
  2816    71.3632    50(8)            58.5031           53.2802                                                                     
  2817    71.3832    56(8)            58.1246           53.2776                                                                     
  2818    71.4032    53(8)            57.7858           53.2751                                                                     
  2819    71.4232    54(8)            57.4811           53.2725                                                                     
  2820    71.4432    53(8)            57.2061           53.2700                                                                     
  2821    71.4632    60(7)            56.0224           53.2675                                                                     
  2822    71.4832    53(7)            55.8532           53.2650                                                                     
  2823    71.5032    55(7)            55.6989           53.2625                                                                     
  2824    71.5232    46(7)            55.5577           53.2600                                                                     
  2825    71.5432    59(7)            55.4282           53.2575                                                                     
  2826    71.5632    53(7)            55.3091           53.2550                                                                     
  2827    71.5832    53(7)            55.1992           53.2525                                                                     
  2828    71.6032    53(7)            55.0977           53.2501                                                                     
  2829    71.6232    61(7)            54.0409           53.2476                                                                     
  2830    71.6432    54(7)            53.9950           53.2452                                                                     
  2831    71.6632    56(7)            53.9527           53.2428                                                                     
  2832    71.6832    46(7)            53.9134           53.2404                                                                     
  2833    71.7032    63(7)            53.8769           53.2380                                                                     
  2834    71.7232    53(7)            53.8430           53.2356                                                                     
  2835    71.7432    51(7)            53.8113           53.2332                                                                     
  2836    71.7632    53(7)            53.7817           53.2308                                                                     
  2837    71.7832    52(7)            53.7540           53.2284                                                                     
  2838    71.8032    51(7)            53.7280           53.2261                                                                     
  2839    71.8232    54(7)            53.2237           53.2237                                                                     
  2840    71.8432    53(7)            53.2214           53.2214                                                                     
  2841    71.8632    50(7)            53.2191           53.2191                                                                     
  2842    71.8832    50(7)            53.2168           53.2168                                                                     
  2843    71.9032    57(7)            53.2145           53.2145                                                                     
  2844    71.9232    49(7)            53.2122           53.2122                                                                     
  2845    71.9432    58(7)            53.2099           53.2099                                                                     
  2846    71.9632    57(7)            53.2076           53.2076                                                                     
  2847    71.9832    47(7)            53.2053           53.2053                                                                     
  2848    72.0032    58(7)            53.2031           53.2031                                                                     
  2849    72.0232    52(7)            53.2008           53.2008                                                                     
  2850    72.0432    66(7)            53.1986           53.1986                                                                     
  2851    72.0632    51(7)            53.1963           53.1963                                                                     
  2852    72.0832    45(7)            53.1941           53.1941                                                                     
  2853    72.1032    60(7)            53.1919           53.1919                                                                     
  2854    72.1232    58(7)            53.1897           53.1897                                                                     
  2855    72.1432    56(7)            53.1875           53.1875                                                                     
  2856    72.1632    53(7)            53.1853           53.1853                                                                     
  2857    72.1832    53(7)            53.1832           53.1832                                                                     
  2858    72.2032    49(7)            53.1810           53.1810                                                                     
  2859    72.2232    55(7)            53.1788           53.1788                                                                     
  2860    72.2432    58(7)            53.1767           53.1767                                                                     
  2861    72.2632    48(7)            53.1746           53.1746                                                                     
  2862    72.2832    45(7)            53.1724           53.1724                                                                     
  2863    72.3032    56(7)            53.1703           53.1703                                                                     
  2864    72.3232    56(7)            53.1682           53.1682                                                                     
  2865    72.3432    58(7)            53.1661           53.1661                                                                     
  2866    72.3632    51(7)            53.1640           53.1640                                                                     
  2867    72.3832    50(7)            53.1620           53.1620                                                                     
  2868    72.4032    51(7)            53.1599           53.1599                                                                     
  2869    72.4232    63(7)            53.1578           53.1578                                                                     
  2870    72.4432    60(7)            53.1558           53.1558                                                                     
  2871    72.4632    51(7)            53.1538           53.1538                                                                     
  2872    72.4832    49(7)            53.1517           53.1517                                                                     
  2873    72.5032    52(7)            53.1497           53.1497                                                                     
  2874    72.5232    50(7)            53.1477           53.1477                                                                     
  2875    72.5432    44(7)            53.1457           53.1457                                                                     
  2876    72.5632    55(7)            53.1437           53.1437                                                                     
  2877    72.5832    50(7)            53.1417           53.1417                                                                     
  2878    72.6032    64(7)            53.1398           53.1398                                                                     
  2879    72.6232    51(7)            53.1378           53.1378                                                                     
  2880    72.6432    54(7)            53.1359           53.1359                                                                     
  2881    72.6632    59(7)            53.1339           53.1339                                                                     
  2882    72.6832    53(7)            53.1320           53.1320                                                                     
  2883    72.7032    65(7)            53.1301           53.1301                                                                     
  2884    72.7232    64(7)            53.1282           53.1282                                                                     
  2885    72.7432    60(7)            53.1263           53.1263                                                                     
  2886    72.7632    68(7)            53.1244           53.1244                                                                     
  2887    72.7832    63(7)            53.1225           53.1225                                                                     
  2888    72.8032    58(7)            53.1206           53.1206                                                                     
  2889    72.8232    54(7)            53.1187           53.1187                                                                     
  2890    72.8432    59(7)            53.1169           53.1169                                                                     
  2891    72.8632    56(7)            53.1150           53.1150                                                                     
  2892    72.8832    57(7)            53.1132           53.1132                                                                     
  2893    72.9032    69(7)            53.1114           53.1114                                                                     
  2894    72.9232    60(7)            53.1096           53.1096                                                                     
  2895    72.9432    69(7)            53.1078           53.1078                                                                     
  2896    72.9632    66(7)            53.1060           53.1060                                                                     
  2897    72.9832    66(7)            53.1042           53.1042                                                                     
  2898    73.0032    65(7)            53.1024           53.1024                                                                     
  2899    73.0232    60(7)            53.1006           53.1006                                                                     
  2900    73.0432    61(7)            53.0989           53.0989                                                                     
  2901    73.0632    59(7)            53.0971           53.0971                                                                     
  2902    73.0832    61(7)            53.0954           53.0954                                                                     
  2903    73.1032    72(7)            53.0937           53.0937                                                                     
  2904    73.1232    61(7)            53.0919           53.0919                                                                     
  2905    73.1432    62(7)            53.0902           53.0902                                                                     
  2906    73.1632    67(7)            53.0885           53.0885                                                                     
  2907    73.1832    60(7)            53.0868           53.0868                                                                     
  2908    73.2032    56(7)            53.0852           53.0852                                                                     
  2909    73.2232    71(7)            53.0835           53.0835                                                                     
  2910    73.2432    52(7)            53.0818           53.0818                                                                     
  2911    73.2632    64(7)            53.0802           53.0802                                                                     
  2912    73.2832    65(7)            53.0785           53.0785                                                                     
  2913    73.3032    63(7)            53.0769           53.0769                                                                     
  2914    73.3232    64(7)            53.0753           53.0753                                                                     
  2915    73.3432    61(7)            53.0737           53.0737                                                                     
  2916    73.3632    68(7)            53.0720           53.0720                                                                     
  2917    73.3832    68(7)            53.0705           53.0705                                                                     
  2918    73.4032    68(7)            53.0689           53.0689                                                                     
  2919    73.4232    64(7)            53.0673           53.0673                                                                     
  2920    73.4432    62(7)            53.0657           53.0657                                                                     
  2921    73.4632    62(7)            53.0642           53.0642                                                                     
  2922    73.4832    56(7)            53.0626           53.0626                                                                     
  2923    73.5032    57(7)            53.0611           53.0611                                                                     
  2924    73.5232    63(7)            53.0596           53.0596                                                                     
  2925    73.5432    62(7)            53.0580           53.0580                                                                     
  2926    73.5632    69(7)            53.0565           53.0565                                                                     
  2927    73.5832    79(7)            53.0550           53.0550                                                                     
  2928    73.6032    72(7)            53.0535           53.0535                                                                     
  2929    73.6232    71(7)            53.0521           53.0521                                                                     
  2930    73.6432    63(7)            53.0506           53.0506                                                                     
  2931    73.6632    76(7)            53.0491           53.0491                                                                     
  2932    73.6832    83(8)            61.6197           53.0477                                                                     
  2933    73.7032    66(8)            62.0954           53.0462                                                                     
  2934    73.7232    72(8)            62.6116           53.0448                                                                     
  2935    73.7432    80(8)            63.1735           53.0434                                                                     
  2936    73.7632    78(8)            63.7864           53.0420                                                                     
  2937    73.7832    76(8)            64.4565           53.0406                                                                     
  2938    73.8032    81(8)            65.1916           53.0392                                                                     
  2939    73.8232    80(8)            65.9997           53.0378                                                                     
  2940    73.8432    79(8)            66.8913           53.0364                                                                     
  2941    73.8632    87(8)            67.8776           53.0351                                                                     
  2942    73.8832    83(8)            68.9730           53.0337                                                                     
  2943    73.9032    84(9)            74.5529           53.0324                                                                     
  2944    73.9232    84(9)            76.1636           53.0310                                                                     
  2945    73.9432    102(9)            77.9635           53.0297                                                                    
  2946    73.9632    103(9)            79.9843           53.0284                                                                    
  2947    73.9832    107(9)            82.2648           53.0271                                                                    
  2948    74.0032    108(9)            84.8494           53.0258                                                                    
  2949    74.0232    104(9)            87.7973           53.0245                                                                    
  2950    74.0432    121(10)            91.1773           53.0232                                                                   
  2951    74.0632    116(10)            95.0815           53.0219                                                                   
  2952    74.0832    111(10)            99.6203           53.0207                                                                   
  2953    74.1032    121(10)           104.9433           53.0194                                                                   
  2954    74.1232    127(11)           111.2373           53.0182                                                                   
  2955    74.1432    135(11)           118.7583           53.0170                                                                   
  2956    74.1632    138(11)           127.8604           53.0157                                                                   
  2957    74.1832    157(12)           139.0411           53.0145                                                                   
  2958    74.2032    148(12)           153.0774           53.0133                                                                   
  2959    74.2232    166(13)           171.1853           53.0121                                                                   
  2960    74.2432    194(14)           195.3753           53.0110                                                                   
  2961    74.2632    213(15)           228.8023           53.0098                                                                   
  2962    74.2832    233(17)           284.0970           53.0086                                                                   
  2963    74.3032    294(19)           352.2700           53.0075                                                                   
  2964    74.3232    358(21)           448.2524           53.0063                                                                   
  2965    74.3432    522(24)           578.9561           53.0052                                                                   
  2966    74.3632    682(27)           746.5207           53.0041                                                                   
  2967    74.3832    871(31)           939.3638           53.0030                                                                   
  2968    74.4032    1008(33)          1115.3363           53.0019                                                                  
  2969    74.4232    1019(35)          1200.9839           53.0008                                                                  
  2970    74.4432    883(34)          1157.9771           52.9997                                                                   
  2971    74.4632    767(32)          1009.2947           52.9986                                                                   
  2972    74.4832    600(29)           839.8315           52.9975                                                                   
  2973    74.5032    514(27)           703.4180           52.9965                                                                   
  2974    74.5232    472(25)           610.3297           52.9954                                                                   
  2975    74.5432    473(24)           567.1183           52.9944                                                                   
  2976    74.5632    458(24)           570.1756           52.9934                                                                   
  2977    74.5832    584(25)           611.4432           52.9923                                                                   
  2978    74.6032    626(26)           674.3041           52.9913                                                                   
  2979    74.6232    672(27)           726.3496           52.9903                                                                   
  2980    74.6432    650(27)           727.4680           52.9893                                                                   
  2981    74.6632    620(26)           670.0591           52.9884                                                                   
  2982    74.6832    544(24)           574.7517           52.9874                                                                   
  2983    74.7032    446(22)           479.2966           52.9864                                                                   
  2984    74.7232    399(20)           400.3798           52.9855                                                                   
  2985    74.7432    375(18)           341.5246           52.9845                                                                   
  2986    74.7632    342(17)           300.8845           52.9836                                                                   
  2987    74.7832    342(17)           274.9314           52.9827                                                                   
  2988    74.8032    319(16)           260.1852           52.9818                                                                   
  2989    74.8232    337(16)           253.9113           52.9809                                                                   
  2990    74.8432    334(16)           254.3193           52.9800                                                                   
  2991    74.8632    311(16)           260.5580           52.9791                                                                   
  2992    74.8832    321(17)           272.6161           52.9782                                                                   
  2993    74.9032    350(17)           291.2596           52.9774                                                                   
  2994    74.9232    352(18)           318.1320           52.9765                                                                   
  2995    74.9432    365(19)           355.8378           52.9757                                                                   
  2996    74.9632    401(20)           408.1556           52.9748                                                                   
  2997    74.9832    440(22)           480.0875           52.9740                                                                   
  2998    75.0032    488(24)           577.5804           52.9732                                                                   
  2999    75.0232    575(27)           707.0623           52.9724                                                                   
  3000    75.0432    727(30)           873.0969           52.9716                                                                   
  3001    75.0632    993(33)          1073.5533           52.9708                                                                   
  3002    75.0832    1211(36)          1289.8418           52.9700                                                                  
  3003    75.1032    1465(39)          1483.6799           52.9693                                                                  
  3004    75.1232    1611(40)          1619.9635           52.9685                                                                  
  3005    75.1432    1652(41)          1702.7858           52.9678                                                                  
  3006    75.1632    1569(42)          1757.9801           52.9670                                                                  
  3007    75.1832    1496(42)          1769.2788           52.9663                                                                  
  3008    75.2032    1411(41)          1709.8971           52.9656                                                                  
  3009    75.2232    1209(40)          1564.0721           52.9649                                                                  
  3010    75.2432    1047(37)          1388.7179           52.9642                                                                  
  3011    75.2632    897(35)          1244.8325           52.9635                                                                   
  3012    75.2832    849(34)          1156.9441           52.9628                                                                   
  3013    75.3032    858(33)          1116.9280           52.9621                                                                   
  3014    75.3232    894(33)          1098.1920           52.9615                                                                   
  3015    75.3432    892(33)          1077.5077           52.9608                                                                   
  3016    75.3632    923(32)          1052.4354           52.9602                                                                   
  3017    75.3832    855(32)          1022.8345           52.9596                                                                   
  3018    75.4032    783(31)           982.5781           52.9589                                                                   
  3019    75.4232    739(30)           901.2740           52.9583                                                                   
  3020    75.4432    624(28)           778.7344           52.9577                                                                   
  3021    75.4632    506(25)           643.5322           52.9571                                                                   
  3022    75.4832    387(23)           521.4466           52.9566                                                                   
  3023    75.5032    288(21)           422.5673           52.9560                                                                   
  3024    75.5232    249(19)           346.7728           52.9554                                                                   
  3025    75.5432    200(17)           290.3502           52.9549                                                                   
  3026    75.5632    189(16)           248.7372           52.9543                                                                   
  3027    75.5832    163(15)           217.8810           52.9538                                                                   
  3028    75.6032    143(14)           194.5312           52.9533                                                                   
  3029    75.6232    136(13)           176.3883           52.9527                                                                   
  3030    75.6432    124(13)           161.8840           52.9522                                                                   
  3031    75.6632    107(12)           150.0005           52.9518                                                                   
  3032    75.6832    108(12)           140.0863           52.9513                                                                   
  3033    75.7032    101(11)           131.6894           52.9508                                                                   
  3034    75.7232    94(11)           124.5035           52.9503                                                                    
  3035    75.7432    95(11)           118.2931           52.9499                                                                    
  3036    75.7632    69(11)           112.8878           52.9494                                                                    
  3037    75.7832    90(10)           108.1487           52.9490                                                                    
  3038    75.8032    79(10)           103.9665           52.9486                                                                    
  3039    75.8232    83(10)           100.2578           52.9482                                                                    
  3040    75.8432    72(10)            96.9496           52.9477                                                                    
  3041    75.8632    73(10)            93.9872           52.9473                                                                    
  3042    75.8832    84(10)            91.3209           52.9470                                                                    
  3043    75.9032    85(9)            88.9134           52.9466                                                                     
  3044    75.9232    71(9)            86.7301           52.9462                                                                     
  3045    75.9432    82(9)            84.7448           52.9459                                                                     
  3046    75.9632    69(8)            67.3620           52.9455                                                                     
  3047    75.9832    70(8)            66.4425           52.9452                                                                     
  3048    76.0032    71(8)            65.6083           52.9449                                                                     
  3049    76.0232    72(8)            64.8488           52.9445                                                                     
  3050    76.0432    77(8)            64.1558           52.9442                                                                     
  3051    76.0632    64(8)            63.5212           52.9439                                                                     
  3052    76.0832    71(8)            62.9392           52.9436                                                                     
  3053    76.1032    69(8)            62.4037           52.9434                                                                     
  3054    76.1232    62(8)            61.9102           52.9431                                                                     
  3055    76.1432    67(8)            61.4543           52.9428                                                                     
  3056    76.1632    66(8)            57.1654           52.9426                                                                     
  3057    76.1832    72(7)            52.9424           52.9424                                                                     
  3058    76.2032    61(7)            52.9421           52.9421                                                                     
  3059    76.2232    69(7)            52.9419           52.9419                                                                     
  3060    76.2432    63(7)            52.9417           52.9417                                                                     
  3061    76.2632    63(7)            52.9415           52.9415                                                                     
  3062    76.2832    60(7)            52.9413           52.9413                                                                     
  3063    76.3032    55(7)            52.9411           52.9411                                                                     
  3064    76.3232    65(7)            52.9410           52.9410                                                                     
  3065    76.3432    58(7)            52.9408           52.9408                                                                     
  3066    76.3632    62(7)            52.9406           52.9406                                                                     
  3067    76.3832    63(7)            52.9405           52.9405                                                                     
  3068    76.4032    58(7)            52.9404           52.9404                                                                     
  3069    76.4232    66(7)            52.9403           52.9403                                                                     
  3070    76.4432    56(7)            52.9402           52.9402                                                                     
  3071    76.4632    58(7)            52.9400           52.9400                                                                     
  3072    76.4832    58(7)            52.9400           52.9400                                                                     
  3073    76.5032    64(7)            52.9399           52.9399                                                                     
  3074    76.5232    54(7)            52.9398           52.9398                                                                     
  3075    76.5432    50(7)            52.9397           52.9397                                                                     
  3076    76.5632    67(7)            52.9397           52.9397                                                                     
  3077    76.5832    59(7)            52.9397           52.9397                                                                     
  3078    76.6032    66(7)            52.9396           52.9396                                                                     
  3079    76.6232    62(7)            52.9396           52.9396                                                                     
  3080    76.6432    56(7)            52.9396           52.9396                                                                     
  3081    76.6632    51(7)            52.9396           52.9396                                                                     
  3082    76.6832    57(7)            52.9396           52.9396                                                                     
  3083    76.7032    63(7)            52.9396           52.9396                                                                     
  3084    76.7232    63(7)            52.9396           52.9396                                                                     
  3085    76.7432    56(7)            52.9397           52.9397                                                                     
  3086    76.7632    53(7)            52.9397           52.9397                                                                     
  3087    76.7832    51(7)            52.9398           52.9398                                                                     
  3088    76.8032    56(7)            52.9399           52.9399                                                                     
  3089    76.8232    63(7)            52.9399           52.9399                                                                     
  3090    76.8432    58(7)            52.9400           52.9400                                                                     
  3091    76.8632    61(7)            52.9401           52.9401                                                                     
  3092    76.8832    51(7)            52.9402           52.9402                                                                     
  3093    76.9032    60(7)            52.9404           52.9404                                                                     
  3094    76.9232    46(7)            52.9405           52.9405                                                                     
  3095    76.9432    55(7)            52.9406           52.9406                                                                     
  3096    76.9632    68(7)            52.9408           52.9408                                                                     
  3097    76.9832    54(7)            52.9409           52.9409                                                                     
  3098    77.0032    60(7)            52.9411           52.9411                                                                     
  3099    77.0232    48(7)            52.9413           52.9413                                                                     
  3100    77.0432    62(7)            52.9415           52.9415                                                                     
  3101    77.0632    50(7)            52.9417           52.9417                                                                     
  3102    77.0832    62(7)            52.9419           52.9419                                                                     
  3103    77.1032    58(7)            52.9421           52.9421                                                                     
  3104    77.1232    62(7)            52.9423           52.9423                                                                     
  3105    77.1432    58(7)            52.9426           52.9426                                                                     
  3106    77.1632    57(7)            52.9428           52.9428                                                                     
  3107    77.1832    60(7)            52.9431           52.9431                                                                     
  3108    77.2032    60(7)            52.9434           52.9434                                                                     
  3109    77.2232    62(7)            52.9436           52.9436                                                                     
  3110    77.2432    60(7)            52.9439           52.9439                                                                     
  3111    77.2632    53(7)            52.9442           52.9442                                                                     
  3112    77.2832    50(7)            52.9445           52.9445                                                                     
  3113    77.3032    52(7)            52.9449           52.9449                                                                     
  3114    77.3232    56(7)            52.9452           52.9452                                                                     
  3115    77.3432    53(7)            52.9455           52.9455                                                                     
  3116    77.3632    60(7)            52.9459           52.9459                                                                     
  3117    77.3832    58(7)            52.9462           52.9462                                                                     
  3118    77.4032    52(7)            52.9466           52.9466                                                                     
  3119    77.4232    54(7)            52.9470           52.9470                                                                     
  3120    77.4432    47(7)            52.9474           52.9474                                                                     
  3121    77.4632    45(7)            52.9478           52.9478                                                                     
  3122    77.4832    54(7)            52.9482           52.9482                                                                     
  3123    77.5032    61(7)            52.9486           52.9486                                                                     
  3124    77.5232    52(7)            52.9490           52.9490                                                                     
  3125    77.5432    51(7)            52.9495           52.9495                                                                     
  3126    77.5632    47(7)            52.9499           52.9499                                                                     
  3127    77.5832    55(7)            52.9504           52.9504                                                                     
  3128    77.6032    52(7)            52.9509           52.9509                                                                     
  3129    77.6232    55(7)            52.9514           52.9514                                                                     
  3130    77.6432    57(7)            52.9518           52.9518                                                                     
  3131    77.6632    54(7)            52.9523           52.9523                                                                     
  3132    77.6832    57(7)            52.9529           52.9529                                                                     
  3133    77.7032    58(7)            52.9534           52.9534                                                                     
  3134    77.7232    63(7)            52.9539           52.9539                                                                     
  3135    77.7432    58(7)            52.9545           52.9545                                                                     
  3136    77.7632    45(7)            52.9550           52.9550                                                                     
  3137    77.7832    59(7)            52.9556           52.9556                                                                     
  3138    77.8032    54(7)            52.9562           52.9562                                                                     
  3139    77.8232    51(7)            52.9567           52.9567                                                                     
  3140    77.8432    60(7)            52.9573           52.9573                                                                     
  3141    77.8632    45(7)            52.9579           52.9579                                                                     
  3142    77.8832    62(7)            52.9586           52.9586                                                                     
  3143    77.9032    51(7)            52.9592           52.9592                                                                     
  3144    77.9232    57(7)            52.9598           52.9598                                                                     
  3145    77.9432    61(7)            52.9605           52.9605                                                                     
  3146    77.9632    50(7)            52.9611           52.9611                                                                     
  3147    77.9832    58(7)            52.9618           52.9618                                                                     
  3148    78.0032    58(7)            52.9625           52.9625                                                                     
  3149    78.0232    69(7)            52.9631           52.9631                                                                     
  3150    78.0432    63(8)            56.8281           52.9638                                                                     
  3151    78.0632    56(8)            57.0362           52.9646                                                                     
  3152    78.0832    59(8)            57.2614           52.9653                                                                     
  3153    78.1032    68(8)            57.5057           52.9660                                                                     
  3154    78.1232    58(8)            57.7711           52.9667                                                                     
  3155    78.1432    63(8)            58.0603           52.9675                                                                     
  3156    78.1632    62(8)            58.3762           52.9683                                                                     
  3157    78.1832    68(8)            58.7220           52.9690                                                                     
  3158    78.2032    57(8)            59.1019           52.9698                                                                     
  3159    78.2232    66(8)            59.5202           52.9706                                                                     
  3160    78.2432    62(8)            59.9825           52.9714                                                                     
  3161    78.2632    68(8)            62.3733           52.9722                                                                     
  3162    78.2832    67(8)            63.0426           52.9730                                                                     
  3163    78.3032    67(8)            63.7870           52.9739                                                                     
  3164    78.3232    71(8)            64.6173           52.9747                                                                     
  3165    78.3432    82(8)            65.5482           52.9755                                                                     
  3166    78.3632    77(8)            66.5958           52.9764                                                                     
  3167    78.3832    68(8)            67.7817           52.9773                                                                     
  3168    78.4032    87(8)            69.1301           52.9782                                                                     
  3169    78.4232    73(8)            70.6735           52.9791                                                                     
  3170    78.4432    67(9)            72.4502           52.9800                                                                     
  3171    78.4632    79(9)            74.5103           52.9809                                                                     
  3172    78.4832    78(9)            76.9186           52.9818                                                                     
  3173    78.5032    74(9)            79.7561           52.9827                                                                     
  3174    78.5232    86(9)            83.1354           52.9837                                                                     
  3175    78.5432    88(9)            87.2058           52.9846                                                                     
  3176    78.5632    83(10)            92.1890           52.9856                                                                    
  3177    78.5832    94(10)            98.4104           52.9866                                                                    
  3178    78.6032    111(10)           106.3905           52.9876                                                                   
  3179    78.6232    89(11)           116.9357           52.9886                                                                    
  3180    78.6432    116(11)           131.2948           52.9896                                                                   
  3181    78.6632    138(12)           151.2747           52.9906                                                                   
  3182    78.6832    157(13)           179.2273           52.9916                                                                   
  3183    78.7032    175(15)           217.9191           52.9927                                                                   
  3184    78.7232    260(16)           269.8901           52.9937                                                                   
  3185    78.7432    335(18)           336.2933           52.9948                                                                   
  3186    78.7632    470(21)           421.6556           52.9959                                                                   
  3187    78.7832    502(22)           497.2819           52.9969                                                                   
  3188    78.8032    549(23)           544.6104           52.9980                                                                   
  3189    78.8232    524(23)           540.2475           52.9991                                                                   
  3190    78.8432    467(22)           489.3236           53.0002                                                                   
  3191    78.8632    369(20)           419.6501           53.0014                                                                   
  3192    78.8832    316(19)           354.9155           53.0025                                                                   
  3193    78.9032    259(17)           306.0621           53.0037                                                                   
  3194    78.9232    265(17)           275.9672           53.0048                                                                   
  3195    78.9432    262(16)           264.3141           53.0060                                                                   
  3196    78.9632    280(16)           269.4475           53.0072                                                                   
  3197    78.9832    312(17)           288.4840           53.0083                                                                   
  3198    79.0032    348(18)           319.6112           53.0095                                                                   
  3199    79.0232    387(19)           343.5902           53.0107                                                                   
  3200    79.0432    379(19)           349.1236           53.0120                                                                   
  3201    79.0632    347(18)           329.4891           53.0132                                                                   
  3202    79.0832    333(17)           293.4985           53.0144                                                                   
  3203    79.1032    278(16)           254.7231           53.0157                                                                   
  3204    79.1232    255(15)           221.3288           53.0169                                                                   
  3205    79.1432    254(14)           195.8652           53.0182                                                                   
  3206    79.1632    216(13)           178.1850           53.0195                                                                   
  3207    79.1832    194(13)           167.2382           53.0208                                                                   
  3208    79.2032    202(13)           161.8239           53.0221                                                                   
  3209    79.2232    183(13)           160.9849           53.0234                                                                   
  3210    79.2432    205(13)           164.1673           53.0247                                                                   
  3211    79.2632    205(13)           171.3310           53.0261                                                                   
  3212    79.2832    211(14)           183.0803           53.0274                                                                   
  3213    79.3032    209(14)           200.8971           53.0288                                                                   
  3214    79.3232    233(15)           227.4656           53.0302                                                                   
  3215    79.3432    259(16)           267.1038           53.0315                                                                   
  3216    79.3632    297(18)           325.7958           53.0329                                                                   
  3217    79.3832    322(20)           410.7979           53.0343                                                                   
  3218    79.4032    399(23)           528.8082           53.0357                                                                   
  3219    79.4232    517(26)           682.5156           53.0372                                                                   
  3220    79.4432    660(29)           861.6389           53.0386                                                                   
  3221    79.4632    841(32)          1027.5781           53.0400                                                                   
  3222    79.4832    932(33)          1109.7515           53.0415                                                                   
  3223    79.5032    925(33)          1060.2336           53.0429                                                                   
  3224    79.5232    841(30)           914.5402           53.0444                                                                   
  3225    79.5432    725(27)           746.5798           53.0459                                                                   
  3226    79.5632    535(25)           603.5417           53.0474                                                                   
  3227    79.5832    405(22)           502.2050           53.0489                                                                   
  3228    79.6032    338(21)           441.0757           53.0504                                                                   
  3229    79.6232    329(21)           424.8844           53.0520                                                                   
  3230    79.6432    294(21)           445.4112           53.0535                                                                   
  3231    79.6632    347(22)           496.1142           53.0550                                                                   
  3232    79.6832    413(24)           563.3825           53.0566                                                                   
  3233    79.7032    442(25)           618.7712           53.0582                                                                   
  3234    79.7232    477(25)           624.3802           53.0598                                                                   
  3235    79.7432    501(24)           567.6748           53.0614                                                                   
  3236    79.7632    444(22)           476.1436           53.0630                                                                   
  3237    79.7832    368(20)           382.9417           53.0646                                                                   
  3238    79.8032    281(17)           304.4326           53.0662                                                                   
  3239    79.8232    183(16)           242.3695           53.0678                                                                   
  3240    79.8432    166(14)           198.6105           53.0695                                                                   
  3241    79.8632    127(13)           167.6587           53.0711                                                                   
  3242    79.8832    106(12)           145.8616           53.0728                                                                   
  3243    79.9032    104(11)           130.2636           53.0745                                                                   
  3244    79.9232    103(11)           118.7258           53.0762                                                                   
  3245    79.9432    96(10)           109.8742           53.0779                                                                    
  3246    79.9632    94(10)           102.8518           53.0796                                                                    
  3247    79.9832    85(10)            97.1348           53.0813                                                                    
  3248    80.0032    78(10)            92.3972           53.0831                                                                    
  3249    80.0232    86(9)            88.4132           53.0848                                                                     
  3250    80.0432    77(9)            85.0283           53.0866                                                                     
  3251    80.0632    81(9)            82.1232           53.0883                                                                     
  3252    80.0832    79(9)            79.6112           53.0901                                                                     
  3253    80.1032    65(9)            77.4215           53.0919                                                                     
  3254    80.1232    65(9)            75.5014           53.0937                                                                     
  3255    80.1432    57(9)            73.8071           53.0955                                                                     
  3256    80.1632    71(9)            72.3031           53.0973                                                                     
  3257    80.1832    69(8)            70.9625           53.0992                                                                     
  3258    80.2032    61(8)            69.7611           53.1010                                                                     
  3259    80.2232    62(8)            61.1051           53.1029                                                                     
  3260    80.2432    70(8)            60.5198           53.1047                                                                     
  3261    80.2632    50(8)            59.9967           53.1066                                                                     
  3262    80.2832    63(8)            59.5272           53.1085                                                                     
  3263    80.3032    57(8)            59.1041           53.1104                                                                     
  3264    80.3232    62(8)            58.7218           53.1123                                                                     
  3265    80.3432    58(8)            58.3750           53.1142                                                                     
  3266    80.3632    61(8)            58.0597           53.1161                                                                     
  3267    80.3832    61(8)            57.7721           53.1181                                                                     
  3268    80.4032    60(8)            57.5092           53.1200                                                                     
  3269    80.4232    52(8)            57.2682           53.1220                                                                     
  3270    80.4432    57(8)            57.0468           53.1240                                                                     
  3271    80.4632    51(7)            53.1260           53.1260                                                                     
  3272    80.4832    57(7)            53.1280           53.1280                                                                     
  3273    80.5032    54(7)            53.1300           53.1300                                                                     
  3274    80.5232    59(7)            53.1320           53.1320                                                                     
  3275    80.5432    57(7)            53.1340           53.1340                                                                     
  3276    80.5632    54(7)            53.1361           53.1361                                                                     
  3277    80.5832    51(7)            53.1381           53.1381                                                                     
  3278    80.6032    55(7)            53.1402           53.1402                                                                     
  3279    80.6232    61(7)            53.1423           53.1423                                                                     
  3280    80.6432    52(7)            53.1443           53.1443                                                                     
  3281    80.6632    59(7)            53.1464           53.1464                                                                     
  3282    80.6832    48(7)            53.1485           53.1485                                                                     
  3283    80.7032    51(7)            53.1507           53.1507                                                                     
  3284    80.7232    56(7)            53.1528           53.1528                                                                     
  3285    80.7432    54(7)            53.1549           53.1549                                                                     
  3286    80.7632    59(7)            53.1571           53.1571                                                                     
  3287    80.7832    61(7)            53.1593           53.1593                                                                     
  3288    80.8032    55(7)            53.1614           53.1614                                                                     
  3289    80.8232    58(7)            53.1636           53.1636                                                                     
  3290    80.8432    56(7)            53.1658           53.1658                                                                     
  3291    80.8632    58(7)            53.1680           53.1680                                                                     
  3292    80.8832    56(7)            53.1702           53.1702                                                                     
  3293    80.9032    50(7)            53.1725           53.1725                                                                     
  3294    80.9232    48(7)            53.1747           53.1747                                                                     
  3295    80.9432    55(7)            53.1770           53.1770                                                                     
  3296    80.9632    59(7)            53.1792           53.1792                                                                     
  3297    80.9832    55(7)            53.1815           53.1815                                                                     
  3298    81.0032    49(7)            53.1838           53.1838                                                                     
  3299    81.0232    57(7)            53.1861           53.1861                                                                     
  3300    81.0432    55(7)            53.1884           53.1884                                                                     
  3301    81.0632    56(7)            53.1907           53.1907                                                                     
  3302    81.0832    60(7)            53.1931           53.1931                                                                     
  3303    81.1032    57(7)            53.1954           53.1954                                                                     
  3304    81.1232    59(7)            53.1978           53.1978                                                                     
  3305    81.1432    50(7)            53.2001           53.2001                                                                     
  3306    81.1632    47(7)            53.2025           53.2025                                                                     
  3307    81.1832    61(7)            53.2049           53.2049                                                                     
  3308    81.2032    49(7)            53.2073           53.2073                                                                     
  3309    81.2232    55(7)            53.2097           53.2097                                                                     
  3310    81.2432    60(7)            53.2121           53.2121                                                                     
  3311    81.2632    59(7)            53.2146           53.2146                                                                     
  3312    81.2832    57(7)            53.2170           53.2170                                                                     
  3313    81.3032    56(7)            53.2195           53.2195                                                                     
  3314    81.3232    56(7)            53.2219           53.2219                                                                     
  3315    81.3432    52(7)            53.2244           53.2244                                                                     
  3316    81.3632    55(7)            53.2269           53.2269                                                                     
  3317    81.3832    53(7)            53.2294           53.2294                                                                     
  3318    81.4032    56(7)            53.2319           53.2319                                                                     
  3319    81.4232    53(7)            53.2344           53.2344                                                                     
  3320    81.4432    52(7)            53.2370           53.2370                                                                     
  3321    81.4632    57(7)            53.2395           53.2395                                                                     
  3322    81.4832    51(7)            53.2421           53.2421                                                                     
  3323    81.5032    45(7)            53.2446           53.2446                                                                     
  3324    81.5232    48(7)            53.2472           53.2472                                                                     
  3325    81.5432    49(7)            53.2498           53.2498                                                                     
  3326    81.5632    55(7)            53.2524           53.2524                                                                     
  3327    81.5832    63(7)            53.2550           53.2550                                                                     
  3328    81.6032    53(7)            53.2577           53.2577                                                                     
  3329    81.6232    56(7)            53.2603           53.2603                                                                     
  3330    81.6432    51(7)            53.2629           53.2629                                                                     
  3331    81.6632    53(7)            53.2656           53.2656                                                                     
  3332    81.6832    55(7)            53.2683           53.2683                                                                     
  3333    81.7032    50(7)            53.2710           53.2710                                                                     
  3334    81.7232    49(7)            53.2737           53.2737                                                                     
  3335    81.7432    52(7)            53.2764           53.2764                                                                     
  3336    81.7632    57(7)            53.2791           53.2791                                                                     
  3337    81.7832    47(7)            53.2818           53.2818                                                                     
  3338    81.8032    52(7)            53.2846           53.2846                                                                     
  3339    81.8232    55(7)            53.2873           53.2873                                                                     
  3340    81.8432    59(7)            53.2901           53.2901                                                                     
  3341    81.8632    50(7)            53.2928           53.2928                                                                     
  3342    81.8832    49(7)            53.2956           53.2956                                                                     
  3343    81.9032    57(7)            53.2984           53.2984                                                                     
  3344    81.9232    50(7)            53.3012           53.3012                                                                     
  3345    81.9432    54(7)            53.3041           53.3041                                                                     
  3346    81.9632    51(7)            53.3069           53.3069                                                                     
  3347    81.9832    54(7)            53.3097           53.3097                                                                     
  3348    82.0032    56(7)            53.3126           53.3126                                                                     
  3349    82.0232    46(7)            53.3155           53.3155                                                                     
  3350    82.0432    56(7)            53.3183           53.3183                                                                     
  3351    82.0632    50(7)            53.3212           53.3212                                                                     
  3352    82.0832    48(7)            53.3241           53.3241                                                                     
  3353    82.1032    61(7)            53.3271           53.3271                                                                     
  3354    82.1232    50(7)            53.3300           53.3300                                                                     
  3355    82.1432    52(7)            53.3329           53.3329                                                                     
  3356    82.1632    47(7)            53.3359           53.3359                                                                     
  3357    82.1832    60(7)            53.3388           53.3388                                                                     
  3358    82.2032    60(7)            53.3418           53.3418                                                                     
  3359    82.2232    52(7)            53.3448           53.3448                                                                     
  3360    82.2432    69(7)            53.3478           53.3478                                                                     
  3361    82.2632    54(7)            53.3508           53.3508                                                                     
  3362    82.2832    55(7)            53.3538           53.3538                                                                     
  3363    82.3032    58(7)            53.3568           53.3568                                                                     
  3364    82.3232    53(7)            53.3599           53.3599                                                                     
  3365    82.3432    56(7)            53.3629           53.3629                                                                     
  3366    82.3632    52(7)            53.3660           53.3660                                                                     
  3367    82.3832    49(7)            53.3691           53.3691                                                                     
  3368    82.4032    56(7)            53.3722           53.3722                                                                     
  3369    82.4232    63(7)            53.3753           53.3753                                                                     
  3370    82.4432    49(7)            53.3784           53.3784                                                                     
  3371    82.4632    61(7)            53.3815           53.3815                                                                     
  3372    82.4832    54(7)            53.3846           53.3846                                                                     
  3373    82.5032    59(7)            53.3878           53.3878                                                                     
  3374    82.5232    54(7)            53.3909           53.3909                                                                     
  3375    82.5432    59(7)            53.3941           53.3941                                                                     
  3376    82.5632    57(7)            53.3973           53.3973                                                                     
  3377    82.5832    71(7)            53.4005           53.4005                                                                     
  3378    82.6032    60(7)            53.4037           53.4037                                                                     
  3379    82.6232    53(7)            53.4069           53.4069                                                                     
  3380    82.6432    56(7)            53.4102           53.4102                                                                     
  3381    82.6632    53(7)            53.4134           53.4134                                                                     
  3382    82.6832    62(7)            53.4167           53.4167                                                                     
  3383    82.7032    53(7)            53.4199           53.4199                                                                     
  3384    82.7232    53(7)            53.4232           53.4232                                                                     
  3385    82.7432    59(7)            53.4265           53.4265                                                                     
  3386    82.7632    57(7)            53.4298           53.4298                                                                     
  3387    82.7832    53(7)            53.4331           53.4331                                                                     
  3388    82.8032    65(7)            53.4364           53.4364                                                                     
  3389    82.8232    56(7)            53.4398           53.4398                                                                     
  3390    82.8432    59(7)            53.4431           53.4431                                                                     
  3391    82.8632    58(8)            63.0832           53.4465                                                                     
  3392    82.8832    70(8)            63.6694           53.4498                                                                     
  3393    82.9032    56(8)            64.3097           53.4532                                                                     
  3394    82.9232    66(8)            65.0114           53.4566                                                                     
  3395    82.9432    56(8)            65.7821           53.4600                                                                     
  3396    82.9632    55(8)            66.6316           53.4634                                                                     
  3397    82.9832    77(8)            67.5712           53.4669                                                                     
  3398    83.0032    66(8)            68.6133           53.4703                                                                     
  3399    83.0232    81(8)            69.7742           53.4738                                                                     
  3400    83.0432    81(8)            71.0718           53.4772                                                                     
  3401    83.0632    79(9)            72.5293           53.4807                                                                     
  3402    83.0832    86(9)            74.1727           53.4842                                                                     
  3403    83.1032    85(9)            76.0362           53.4877                                                                     
  3404    83.1232    82(9)            83.1047           53.4912                                                                     
  3405    83.1432    97(9)            85.8411           53.4948                                                                     
  3406    83.1632    86(9)            88.9807           53.4983                                                                     
  3407    83.1832    101(10)            92.6044           53.5019                                                                   
  3408    83.2032    101(10)            96.8209           53.5054                                                                   
  3409    83.2232    102(10)           101.7634           53.5090                                                                   
  3410    83.2432    115(10)           107.6138           53.5126                                                                   
  3411    83.2632    112(11)           114.6038           53.5162                                                                   
  3412    83.2832    114(11)           123.0564           53.5198                                                                   
  3413    83.3032    116(12)           133.4298           53.5234                                                                   
  3414    83.3232    146(12)           146.3964           53.5271                                                                   
  3415    83.3432    167(13)           163.0637           53.5307                                                                   
  3416    83.3632    196(14)           185.2971           53.5344                                                                   
  3417    83.3832    206(15)           216.3735           53.5380                                                                   
  3418    83.4032    237(16)           261.6732           53.5417                                                                   
  3419    83.4232    307(18)           329.3541           53.5454                                                                   
  3420    83.4432    390(21)           429.8791           53.5491                                                                   
  3421    83.4632    466(24)           574.1425           53.5528                                                                   
  3422    83.4832    696(28)           768.6921           53.5566                                                                   
  3423    83.5032    1011(32)          1004.9310           53.5603                                                                  
  3424    83.5232    1296(35)          1238.0831           53.5641                                                                  
  3425    83.5432    1397(37)          1371.4487           53.5678                                                                  
  3426    83.5632    1444(36)          1322.6744           53.5716                                                                  
  3427    83.5832    1212(34)          1129.5549           53.5754                                                                  
  3428    83.6032    954(30)           898.1177           53.5792                                                                   
  3429    83.6232    720(26)           698.0105           53.5830                                                                   
  3430    83.6432    523(24)           552.2569           53.5868                                                                   
  3431    83.6632    414(22)           462.3590           53.5907                                                                   
  3432    83.6832    383(21)           423.2970           53.5945                                                                   
  3433    83.7032    359(21)           429.4948           53.5984                                                                   
  3434    83.7232    421(22)           476.4441           53.6023                                                                   
  3435    83.7432    481(24)           558.2895           53.6062                                                                   
  3436    83.7632    581(26)           659.8714           53.6101                                                                   
  3437    83.7832    749(27)           744.1320           53.6140                                                                   
  3438    83.8032    771(28)           757.5500           53.6179                                                                   
  3439    83.8232    732(26)           682.6819           53.6218                                                                   
  3440    83.8432    620(24)           561.0249           53.6258                                                                   
  3441    83.8632    502(21)           439.6791           53.6298                                                                   
  3442    83.8832    346(18)           339.9878           53.6337                                                                   
  3443    83.9032    264(16)           265.7834           53.6377                                                                   
  3444    83.9232    210(15)           213.6038           53.6417                                                                   
  3445    83.9432    161(13)           178.0047           53.6457                                                                   
  3446    83.9632    130(12)           153.7097           53.6498                                                                   
  3447    83.9832    113(12)           136.6668           53.6538                                                                   
  3448    84.0032    106(11)           124.1916           53.6578                                                                   
  3449    84.0232    99(11)           114.6391           53.6619                                                                    
  3450    84.0432    96(10)           107.0658           53.6660                                                                    
  3451    84.0632    84(10)           100.9029           53.6701                                                                    
  3452    84.0832    84(10)            95.8013           53.6741                                                                    
  3453    84.1032    78(10)            91.5175           53.6783                                                                    
  3454    84.1232    92(9)            87.8834           53.6824                                                                     
  3455    84.1432    63(9)            84.7699           53.6865                                                                     
  3456    84.1632    78(9)            82.0788           53.6907                                                                     
  3457    84.1832    77(9)            79.7372           53.6948                                                                     
  3458    84.2032    71(9)            77.6842           53.6990                                                                     
  3459    84.2232    56(9)            75.8745           53.7032                                                                     
  3460    84.2432    59(8)            64.9410           53.7074                                                                     
  3461    84.2632    53(8)            64.0200           53.7116                                                                     
  3462    84.2832    60(8)            63.2082           53.7158                                                                     
  3463    84.3032    62(8)            62.4887           53.7200                                                                     
  3464    84.3232    55(8)            61.8487           53.7243                                                                     
  3465    84.3432    55(8)            61.2767           53.7285                                                                     
  3466    84.3632    60(8)            60.7638           53.7328                                                                     
  3467    84.3832    54(8)            60.3018           53.7371                                                                     
  3468    84.4032    63(8)            59.8848           53.7414                                                                     
  3469    84.4232    55(8)            59.5067           53.7457                                                                     
  3470    84.4432    53(8)            59.1633           53.7500                                                                     
  3471    84.4632    49(8)            58.8504           53.7543                                                                     
  3472    84.4832    49(8)            58.5643           53.7587                                                                     
  3473    84.5032    61(7)            53.7630           53.7630                                                                     
  3474    84.5232    50(7)            53.7674           53.7674                                                                     
  3475    84.5432    50(7)            53.7718           53.7718                                                                     
  3476    84.5632    52(7)            53.7762           53.7762                                                                     
  3477    84.5832    53(7)            53.7806           53.7806                                                                     
  3478    84.6032    58(7)            53.7850           53.7850                                                                     
  3479    84.6232    60(7)            53.7894           53.7894                                                                     
  3480    84.6432    63(7)            53.7939           53.7939                                                                     
  3481    84.6632    68(7)            53.7983           53.7983                                                                     
  3482    84.6832    48(7)            53.8028           53.8028                                                                     
  3483    84.7032    61(7)            53.8073           53.8073                                                                     
  3484    84.7232    57(7)            53.8118           53.8118                                                                     
  3485    84.7432    57(7)            53.8163           53.8163                                                                     
  3486    84.7632    62(7)            53.8208           53.8208                                                                     
  3487    84.7832    51(7)            53.8253           53.8253                                                                     
  3488    84.8032    54(7)            53.8298           53.8298                                                                     
  3489    84.8232    59(7)            53.8344           53.8344                                                                     
  3490    84.8432    57(7)            53.8390           53.8390                                                                     
  3491    84.8632    60(7)            53.8436           53.8436                                                                     
  3492    84.8832    53(7)            53.8482           53.8482                                                                     
  3493    84.9032    59(7)            53.8528           53.8528                                                                     
  3494    84.9232    52(7)            53.8574           53.8574                                                                     
  3495    84.9432    51(7)            53.8620           53.8620                                                                     
  3496    84.9632    54(7)            53.8666           53.8666                                                                     
  3497    84.9832    54(7)            53.8713           53.8713                                                                     
  3498    85.0032    52(7)            53.8760           53.8760                                                                     
  3499    85.0232    46(7)            53.8807           53.8807                                                                     
  3500    85.0432    54(7)            53.8853           53.8853                                                                     
  3501    85.0632    48(7)            53.8901           53.8901                                                                     
  3502    85.0832    57(7)            53.8948           53.8948                                                                     
  3503    85.1032    51(7)            53.8995           53.8995                                                                     
  3504    85.1232    58(7)            53.9042           53.9042                                                                     
  3505    85.1432    58(7)            53.9090           53.9090                                                                     
  3506    85.1632    47(7)            53.9138           53.9138                                                                     
  3507    85.1832    47(7)            53.9185           53.9185                                                                     
  3508    85.2032    51(7)            53.9233           53.9233                                                                     
  3509    85.2232    42(7)            53.9282           53.9282                                                                     
  3510    85.2432    44(7)            53.9330           53.9330                                                                     
  3511    85.2632    58(7)            53.9378           53.9378                                                                     
  3512    85.2832    50(7)            53.9426           53.9426                                                                     
  3513    85.3032    60(7)            53.9475           53.9475                                                                     
  3514    85.3232    53(7)            53.9524           53.9524                                                                     
  3515    85.3432    51(7)            53.9573           53.9573                                                                     
  3516    85.3632    46(7)            53.9622           53.9622                                                                     
  3517    85.3832    52(7)            53.9671           53.9671                                                                     
  3518    85.4032    59(7)            53.9720           53.9720                                                                     
  3519    85.4232    54(7)            53.9769           53.9769                                                                     
  3520    85.4432    56(7)            53.9819           53.9819                                                                     
  3521    85.4632    57(7)            53.9868           53.9868                                                                     
  3522    85.4832    58(7)            53.9918           53.9918                                                                     
  3523    85.5032    47(7)            53.9968           53.9968                                                                     
  3524    85.5232    57(7)            54.0018           54.0018                                                                     
  3525    85.5432    50(7)            54.0068           54.0068                                                                     
  3526    85.5632    50(7)            54.0118           54.0118                                                                     
  3527    85.5832    62(7)            54.0168           54.0168                                                                     
  3528    85.6032    60(7)            54.0219           54.0219                                                                     
  3529    85.6232    55(7)            54.0269           54.0269                                                                     
  3530    85.6432    56(7)            54.0320           54.0320                                                                     
  3531    85.6632    45(7)            54.0371           54.0371                                                                     
  3532    85.6832    61(7)            54.0422           54.0422                                                                     
  3533    85.7032    52(7)            54.0473           54.0473                                                                     
  3534    85.7232    52(7)            54.0524           54.0524                                                                     
  3535    85.7432    49(7)            54.0576           54.0576                                                                     
  3536    85.7632    48(7)            54.0627           54.0627                                                                     
  3537    85.7832    48(7)            54.0679           54.0679                                                                     
  3538    85.8032    48(7)            54.0731           54.0731                                                                     
  3539    85.8232    56(7)            54.0783           54.0783                                                                     
  3540    85.8432    50(7)            54.0835           54.0835                                                                     
  3541    85.8632    53(7)            54.0887           54.0887                                                                     
  3542    85.8832    62(7)            54.0939           54.0939                                                                     
  3543    85.9032    53(7)            54.0991           54.0991                                                                     
  3544    85.9232    50(7)            54.1044           54.1044                                                                     
  3545    85.9432    53(7)            54.1096           54.1096                                                                     
  3546    85.9632    47(7)            54.1149           54.1149                                                                     
  3547    85.9832    48(7)            54.1202           54.1202                                                                     
  3548    86.0032    63(7)            54.1255           54.1255                                                                     
  3549    86.0232    49(7)            54.1308           54.1308                                                                     
  3550    86.0432    44(7)            54.1362           54.1362                                                                     
  3551    86.0632    55(7)            54.1415           54.1415                                                                     
  3552    86.0832    49(7)            54.1469           54.1469                                                                     
  3553    86.1032    44(7)            54.1522           54.1522                                                                     
  3554    86.1232    54(7)            54.1576           54.1576                                                                     
  3555    86.1432    50(7)            54.1630           54.1630                                                                     
  3556    86.1632    51(7)            54.1684           54.1684                                                                     
  3557    86.1832    46(7)            54.1738           54.1738                                                                     
  3558    86.2032    52(7)            54.1793           54.1793                                                                     
  3559    86.2232    46(7)            54.1847           54.1847                                                                     
  3560    86.2432    56(7)            54.1902           54.1902                                                                     
  3561    86.2632    48(7)            54.1956           54.1956                                                                     
  3562    86.2832    50(7)            54.2011           54.2011                                                                     
  3563    86.3032    43(7)            54.2066           54.2066                                                                     
  3564    86.3232    55(7)            54.2121           54.2121                                                                     
  3565    86.3432    52(7)            54.2177           54.2177                                                                     
  3566    86.3632    54(7)            54.2232           54.2232                                                                     
  3567    86.3832    47(7)            54.2287           54.2287                                                                     
  3568    86.4032    48(7)            54.2343           54.2343                                                                     
  3569    86.4232    45(7)            54.2399           54.2399                                                                     
  3570    86.4432    46(7)            54.2455           54.2455                                                                     
  3571    86.4632    50(7)            54.2511           54.2511                                                                     
  3572    86.4832    45(7)            54.2567           54.2567                                                                     
  3573    86.5032    40(7)            54.2623           54.2623                                                                     
  3574    86.5232    45(7)            54.2679           54.2679                                                                     
  3575    86.5432    64(7)            55.5725           54.2736                                                                     
  3576    86.5632    49(7)            55.6395           54.2793                                                                     
  3577    86.5832    50(7)            55.7109           54.2849                                                                     
  3578    86.6032    52(7)            55.7871           54.2906                                                                     
  3579    86.6232    50(7)            55.8688           54.2963                                                                     
  3580    86.6432    46(7)            55.9563           54.3021                                                                     
  3581    86.6632    45(7)            56.0504           54.3078                                                                     
  3582    86.6832    49(7)            56.1517           54.3135                                                                     
  3583    86.7032    44(8)            56.2611           54.3193                                                                     
  3584    86.7232    52(8)            56.3795           54.3251                                                                     
  3585    86.7432    57(8)            56.5079           54.3308                                                                     
  3586    86.7632    53(8)            56.6475           54.3366                                                                     
  3587    86.7832    48(8)            56.7998           54.3425                                                                     
  3588    86.8032    50(8)            57.6039           54.3483                                                                     
  3589    86.8232    47(8)            57.8165           54.3541                                                                     
  3590    86.8432    53(8)            58.0497           54.3600                                                                     
  3591    86.8632    51(8)            58.3063           54.3658                                                                     
  3592    86.8832    54(8)            58.5896           54.3717                                                                     
  3593    86.9032    52(8)            58.9036           54.3776                                                                     
  3594    86.9232    68(8)            59.2530           54.3835                                                                     
  3595    86.9432    55(8)            59.6434           54.3894                                                                     
  3596    86.9632    48(8)            60.0816           54.3953                                                                     
  3597    86.9832    59(8)            61.7768           54.4013                                                                     
  3598    87.0032    58(8)            62.3959           54.4072                                                                     
  3599    87.0232    53(8)            63.0985           54.4132                                                                     
  3600    87.0432    58(8)            63.9002           54.4192                                                                     
  3601    87.0632    58(8)            64.8219           54.4252                                                                     
  3602    87.0832    65(8)            65.8889           54.4312                                                                     
  3603    87.1032    58(8)            67.1363           54.4372                                                                     
  3604    87.1232    65(8)            68.6093           54.4432                                                                     
  3605    87.1432    68(8)            70.3725           54.4493                                                                     
  3606    87.1632    64(9)            72.5202           54.4553                                                                     
  3607    87.1832    63(9)            75.1876           54.4614                                                                     
  3608    87.2032    64(9)            78.5791           54.4675                                                                     
  3609    87.2232    66(9)            82.9825           54.4736                                                                     
  3610    87.2432    81(9)            89.3874           54.4797                                                                     
  3611    87.2632    71(10)            97.1601           54.4858                                                                    
  3612    87.2832    79(10)           107.4708           54.4919                                                                    
  3613    87.3032    81(11)           120.9580           54.4981                                                                    
  3614    87.3232    106(12)           138.1049           54.5042                                                                   
  3615    87.3432    131(13)           158.9055           54.5104                                                                   
  3616    87.3632    166(13)           182.0191           54.5166                                                                   
  3617    87.3832    197(14)           203.6610           54.5228                                                                   
  3618    87.4032    192(15)           217.4047           54.5290                                                                   
  3619    87.4232    192(15)           219.0391           54.5353                                                                   
  3620    87.4432    191(14)           206.6341           54.5415                                                                   
  3621    87.4632    161(14)           187.5448           54.5478                                                                   
  3622    87.4832    138(13)           168.0905           54.5540                                                                   
  3623    87.5032    129(12)           151.8990           54.5603                                                                   
  3624    87.5232    110(12)           140.3125           54.5666                                                                   
  3625    87.5432    119(12)           133.5908           54.5729                                                                   
  3626    87.5632    101(11)           131.5833           54.5792                                                                   
  3627    87.5832    111(12)           134.0365           54.5856                                                                   
  3628    87.6032    130(12)           140.6170           54.5919                                                                   
  3629    87.6232    127(12)           150.6949           54.5983                                                                   
  3630    87.6432    156(13)           162.8703           54.6047                                                                   
  3631    87.6632    151(13)           174.5560           54.6110                                                                   
  3632    87.6832    162(14)           183.4533           54.6175                                                                   
  3633    87.7032    166(14)           187.6678           54.6239                                                                   
  3634    87.7232    164(14)           190.4574           54.6303                                                                   
  3635    87.7432    168(14)           195.5522           54.6367                                                                   
  3636    87.7632    177(14)           205.0421           54.6432                                                                   
  3637    87.7832    222(15)           218.1330           54.6497                                                                   
  3638    87.8032    255(15)           230.4813           54.6561                                                                   
  3639    87.8232    245(15)           235.1114           54.6626                                                                   
  3640    87.8432    244(15)           227.3286           54.6691                                                                   
  3641    87.8632    226(14)           209.3997           54.6757                                                                   
  3642    87.8832    194(14)           187.8984           54.6822                                                                   
  3643    87.9032    167(13)           168.2487           54.6887                                                                   
  3644    87.9232    149(12)           153.0258           54.6953                                                                   
  3645    87.9432    146(12)           143.0406           54.7019                                                                   
  3646    87.9632    146(12)           138.4024           54.7085                                                                   
  3647    87.9832    128(12)           139.1315           54.7151                                                                   
  3648    88.0032    137(12)           145.3875           54.7217                                                                   
  3649    88.0232    162(13)           157.4734           54.7283                                                                   
  3650    88.0432    152(13)           175.5027           54.7349                                                                   
  3651    88.0632    189(14)           198.7128           54.7416                                                                   
  3652    88.0832    226(15)           224.6646           54.7483                                                                   
  3653    88.1032    235(16)           249.7169           54.7550                                                                   
  3654    88.1232    256(16)           270.0951           54.7616                                                                   
  3655    88.1432    278(17)           280.5603           54.7684                                                                   
  3656    88.1632    284(17)           274.0387           54.7751                                                                   
  3657    88.1832    300(16)           249.6168           54.7818                                                                   
  3658    88.2032    229(15)           216.1884           54.7886                                                                   
  3659    88.2232    191(14)           183.6630           54.7953                                                                   
  3660    88.2432    154(13)           156.9889           54.8021                                                                   
  3661    88.2632    141(12)           137.3901           54.8089                                                                   
  3662    88.2832    126(11)           124.4824           54.8157                                                                   
  3663    88.3032    105(11)           116.2450           54.8225                                                                   
  3664    88.3232    103(11)           114.4786           54.8293                                                                   
  3665    88.3432    92(11)           117.3418           54.8362                                                                    
  3666    88.3632    114(11)           124.2896           54.8430                                                                   
  3667    88.3832    126(12)           134.2367           54.8499                                                                   
  3668    88.4032    128(12)           144.4666           54.8568                                                                   
  3669    88.4232    146(12)           150.0295           54.8637                                                                   
  3670    88.4432    152(12)           146.5350           54.8706                                                                   
  3671    88.4632    144(12)           134.9629           54.8775                                                                   
  3672    88.4832    129(11)           120.2826           54.8844                                                                   
  3673    88.5032    105(10)           106.4826           54.8914                                                                   
  3674    88.5232    95(10)            95.1523           54.8983                                                                    
  3675    88.5432    74(9)            86.4946           54.9053                                                                     
  3676    88.5632    76(9)            79.5096           54.9123                                                                     
  3677    88.5832    69(9)            74.9630           54.9193                                                                     
  3678    88.6032    65(8)            71.6894           54.9263                                                                     
  3679    88.6232    73(8)            69.2860           54.9333                                                                     
  3680    88.6432    64(8)            67.4626           54.9404                                                                     
  3681    88.6632    64(8)            66.0293           54.9474                                                                     
  3682    88.6832    56(8)            63.7061           54.9545                                                                     
  3683    88.7032    55(8)            62.7958           54.9616                                                                     
  3684    88.7232    51(8)            62.0334           54.9687                                                                     
  3685    88.7432    55(8)            61.3860           54.9758                                                                     
  3686    88.7632    61(8)            60.8310           54.9829                                                                     
  3687    88.7832    62(8)            60.3511           54.9900                                                                     
  3688    88.8032    63(8)            59.9326           54.9972                                                                     
  3689    88.8232    62(8)            59.5657           55.0044                                                                     
  3690    88.8432    72(8)            59.2418           55.0115                                                                     
  3691    88.8632    61(8)            58.9545           55.0187                                                                     
  3692    88.8832    55(8)            58.6982           55.0259                                                                     
  3693    88.9032    66(8)            58.4688           55.0331                                                                     
  3694    88.9232    54(8)            57.0744           55.0404                                                                     
  3695    88.9432    56(8)            56.9474           55.0476                                                                     
  3696    88.9632    60(8)            56.2650           55.0549                                                                     
  3697    88.9832    64(7)            56.1880           55.0621                                                                     
  3698    89.0032    61(7)            56.1194           55.0694                                                                     
  3699    89.0232    54(7)            56.0582           55.0767                                                                     
  3700    89.0432    58(7)            56.0035           55.0840                                                                     
  3701    89.0632    69(7)            55.9545           55.0914                                                                     
  3702    89.0832    60(7)            55.9105           55.0987                                                                     
  3703    89.1032    57(7)            55.8709           55.1061                                                                     
  3704    89.1232    53(7)            55.8353           55.1134                                                                     
  3705    89.1432    60(7)            55.8033           55.1208                                                                     
  3706    89.1632    46(7)            55.7743           55.1282                                                                     
  3707    89.1832    66(7)            55.7482           55.1356                                                                     
  3708    89.2032    58(7)            55.1430           55.1430                                                                     
  3709    89.2232    63(7)            55.1504           55.1504                                                                     
  3710    89.2432    58(7)            55.1579           55.1579                                                                     
  3711    89.2632    49(7)            55.1653           55.1653                                                                     
  3712    89.2832    61(7)            55.1728           55.1728                                                                     
  3713    89.3032    62(7)            55.1803           55.1803                                                                     
  3714    89.3232    67(7)            55.1878           55.1878                                                                     
  3715    89.3432    59(7)            55.1953           55.1953                                                                     
  3716    89.3632    61(7)            55.2028           55.2028                                                                     
  3717    89.3832    62(7)            55.2104           55.2104                                                                     
  3718    89.4032    52(7)            55.2179           55.2179                                                                     
  3719    89.4232    63(7)            55.2255           55.2255                                                                     
  3720    89.4432    58(7)            55.2331           55.2331                                                                     
  3721    89.4632    61(7)            55.2407           55.2407                                                                     
  3722    89.4832    68(7)            55.2483           55.2483                                                                     
  3723    89.5032    60(7)            55.2559           55.2559                                                                     
  3724    89.5232    52(7)            55.2635           55.2635                                                                     
  3725    89.5432    49(7)            55.2712           55.2712                                                                     
  3726    89.5632    50(7)            55.2789           55.2789                                                                     
  3727    89.5832    63(7)            55.2865           55.2865                                                                     
  3728    89.6032    67(7)            55.2942           55.2942                                                                     
  3729    89.6232    60(7)            55.3019           55.3019                                                                     
  3730    89.6432    57(7)            55.3096           55.3096                                                                     
  3731    89.6632    52(7)            55.3174           55.3174                                                                     
  3732    89.6832    60(7)            55.3251           55.3251                                                                     
  3733    89.7032    56(7)            55.3329           55.3329                                                                     
  3734    89.7232    61(7)            55.3406           55.3406                                                                     
  3735    89.7432    77(7)            55.3484           55.3484                                                                     
  3736    89.7632    63(7)            55.3562           55.3562                                                                     
  3737    89.7832    55(7)            55.3640           55.3640                                                                     
  3738    89.8032    56(7)            55.3718           55.3718                                                                     
  3739    89.8232    58(7)            55.3797           55.3797                                                                     
  3740    89.8432    58(7)            55.3875           55.3875                                                                     
  3741    89.8632    61(7)            55.3954           55.3954                                                                     
  3742    89.8832    59(7)            55.4033           55.4033                                                                     
  3743    89.9032    53(7)            55.4112           55.4112                                                                     
  3744    89.9232    59(7)            55.4191           55.4191                                                                     
  3745    89.9432    71(7)            55.4270           55.4270                                                                     
  3746    89.9632    59(7)            55.4349           55.4349                                                                     
  3747    89.9832    57(7)            55.4429           55.4429                                                                     
  3748    90.0032    59(7)            55.4508           55.4508                                                                     
  3749    90.0232    71(7)            55.4588           55.4588                                                                     
  3750    90.0432    62(7)            55.4668           55.4668                                                                     
  3751    90.0632    62(7)            55.4748           55.4748                                                                     
  3752    90.0832    60(7)            55.4828           55.4828                                                                     
  3753    90.1032    64(7)            55.4908           55.4908                                                                     
  3754    90.1232    53(7)            55.4989           55.4989                                                                     
  3755    90.1432    55(7)            55.5069           55.5069                                                                     
  3756    90.1632    61(7)            55.5150           55.5150                                                                     
  3757    90.1832    62(7)            55.5231           55.5231                                                                     
  3758    90.2032    65(7)            55.5312           55.5312                                                                     
  3759    90.2232    67(7)            55.5393           55.5393                                                                     
  3760    90.2432    53(7)            55.5474           55.5474                                                                     
  3761    90.2632    60(7)            55.5555           55.5555                                                                     
  3762    90.2832    53(7)            55.5637           55.5637                                                                     
  3763    90.3032    61(7)            55.5719           55.5719                                                                     
  3764    90.3232    57(7)            55.5800           55.5800                                                                     
  3765    90.3432    57(7)            55.5882           55.5882                                                                     
  3766    90.3632    59(7)            55.5964           55.5964                                                                     
  3767    90.3832    69(7)            55.6046           55.6046                                                                     
  3768    90.4032    73(7)            55.6129           55.6129                                                                     
  3769    90.4232    65(7)            55.6211           55.6211                                                                     
  3770    90.4432    65(7)            55.6294           55.6294                                                                     
  3771    90.4632    65(7)            55.6377           55.6377                                                                     
  3772    90.4832    54(7)            55.6459           55.6459                                                                     
  3773    90.5032    62(7)            55.6542           55.6542                                                                     
  3774    90.5232    66(7)            55.6625           55.6625                                                                     
  3775    90.5432    62(7)            55.6709           55.6709                                                                     
  3776    90.5632    70(7)            55.6792           55.6792                                                                     
  3777    90.5832    70(7)            55.6876           55.6876                                                                     
  3778    90.6032    59(7)            55.6959           55.6959                                                                     
  3779    90.6232    67(7)            55.7043           55.7043                                                                     
  3780    90.6432    70(7)            55.7127           55.7127                                                                     
  3781    90.6632    71(7)            55.7211           55.7211                                                                     
  3782    90.6832    62(7)            55.7295           55.7295                                                                     
  3783    90.7032    75(7)            55.7380           55.7380                                                                     
  3784    90.7232    61(7)            55.7464           55.7464                                                                     
  3785    90.7432    80(7)            55.7549           55.7549                                                                     
  3786    90.7632    64(7)            55.7634           55.7634                                                                     
  3787    90.7832    60(7)            55.7718           55.7718                                                                     
  3788    90.8032    78(7)            55.7803           55.7803                                                                     
  3789    90.8232    79(8)            64.6579           55.7889                                                                     
  3790    90.8432    83(8)            65.0917           55.7974                                                                     
  3791    90.8632    76(8)            65.5566           55.8059                                                                     
  3792    90.8832    68(8)            66.0561           55.8145                                                                     
  3793    90.9032    79(8)            66.5931           55.8231                                                                     
  3794    90.9232    80(8)            67.1723           55.8316                                                                     
  3795    90.9432    73(8)            67.7976           55.8402                                                                     
  3796    90.9632    94(8)            68.4743           55.8489                                                                     
  3797    90.9832    77(8)            69.2086           55.8575                                                                     
  3798    91.0032    86(8)            70.0067           55.8661                                                                     
  3799    91.0232    85(8)            70.8769           55.8748                                                                     
  3800    91.0432    91(8)            71.8273           55.8834                                                                     
  3801    91.0632    82(9)            72.8692           55.8921                                                                     
  3802    91.0832    82(9)            74.0136           55.9008                                                                     
  3803    91.1032    91(9)            75.2756           55.9095                                                                     
  3804    91.1232    103(9)            81.2223           55.9182                                                                    
  3805    91.1432    109(9)            82.9913           55.9270                                                                    
  3806    91.1632    105(9)            84.9537           55.9357                                                                    
  3807    91.1832    107(9)            87.1373           55.9445                                                                    
  3808    91.2032    102(9)            89.5788           55.9532                                                                    
  3809    91.2232    113(10)            92.3187           55.9620                                                                   
  3810    91.2432    118(10)            95.4105           55.9708                                                                   
  3811    91.2632    129(10)            98.9147           55.9796                                                                   
  3812    91.2832    121(10)           102.9097           55.9885                                                                   
  3813    91.3032    135(10)           107.4940           55.9973                                                                   
  3814    91.3232    135(11)           122.5759           56.0062                                                                   
  3815    91.3432    142(11)           129.2572           56.0150                                                                   
  3816    91.3632    136(12)           137.0448           56.0239                                                                   
  3817    91.3832    158(12)           146.2198           56.0328                                                                   
  3818    91.4032    156(13)           157.1557           56.0417                                                                   
  3819    91.4232    180(13)           170.4073           56.0506                                                                   
  3820    91.4432    173(14)           186.7743           56.0596                                                                   
  3821    91.4632    196(14)           207.4767           56.0685                                                                   
  3822    91.4832    219(15)           234.3303           56.0775                                                                   
  3823    91.5032    265(16)           269.8943           56.0865                                                                   
  3824    91.5232    284(18)           317.6694           56.0955                                                                   
  3825    91.5432    339(20)           381.9221           56.1045                                                                   
  3826    91.5632    392(22)           467.4679           56.1135                                                                   
  3827    91.5832    515(24)           578.5651           56.1225                                                                   
  3828    91.6032    664(27)           731.5912           56.1316                                                                   
  3829    91.6232    852(30)           893.3336           56.1406                                                                   
  3830    91.6432    1077(33)          1057.4037           56.1497                                                                  
  3831    91.6632    1227(34)          1182.2170           56.1588                                                                  
  3832    91.6832    1311(35)          1219.3730           56.1679                                                                  
  3833    91.7032    1189(34)          1154.7969           56.1770                                                                  
  3834    91.7232    971(32)          1024.1461           56.1861                                                                   
  3835    91.7432    825(30)           877.4515           56.1952                                                                   
  3836    91.7632    678(27)           747.6145           56.2044                                                                   
  3837    91.7832    617(25)           648.0034           56.2136                                                                   
  3838    91.8032    559(24)           581.5590           56.2227                                                                   
  3839    91.8232    550(23)           547.3648           56.2319                                                                   
  3840    91.8432    532(23)           543.5822           56.2411                                                                   
  3841    91.8632    579(24)           568.7548           56.2504                                                                   
  3842    91.8832    629(25)           621.9174           56.2596                                                                   
  3843    91.9032    742(27)           706.4056           56.2688                                                                   
  3844    91.9232    791(28)           807.6942           56.2781                                                                   
  3845    91.9432    933(30)           917.7953           56.2874                                                                   
  3846    91.9632    970(32)          1017.5999           56.2967                                                                   
  3847    91.9832    1091(33)          1096.5155           56.3060                                                                  
  3848    92.0032    1082(34)          1168.1190           56.3153                                                                  
  3849    92.0232    1112(35)          1259.5226           56.3246                                                                  
  3850    92.0432    1190(37)          1384.0342           56.3340                                                                  
  3851    92.0632    1339(39)          1520.7874           56.3433                                                                  
  3852    92.0832    1426(40)          1607.8771           56.3527                                                                  
  3853    92.1032    1514(40)          1578.7578           56.3621                                                                  
  3854    92.1232    1433(38)          1433.2495           56.3714                                                                  
  3855    92.1432    1254(35)          1237.8152           56.3809                                                                  
  3856    92.1632    1130(33)          1057.4995           56.3903                                                                  
  3857    92.1832    941(30)           926.1700           56.3997                                                                   
  3858    92.2032    890(29)           856.7185           56.4092                                                                   
  3859    92.2232    894(29)           854.7196           56.4186                                                                   
  3860    92.2432    882(30)           924.0828           56.4281                                                                   
  3861    92.2632    938(33)          1067.4652           56.4376                                                                   
  3862    92.2832    1092(36)          1282.0039           56.4471                                                                  
  3863    92.3032    1347(39)          1547.2498           56.4566                                                                  
  3864    92.3232    1668(42)          1804.7429           56.4661                                                                  
  3865    92.3432    1922(44)          1959.9092           56.4757                                                                  
  3866    92.3632    1987(44)          1947.0710           56.4852                                                                  
  3867    92.3832    1829(42)          1783.2554           56.4948                                                                  
  3868    92.4032    1496(39)          1530.0986           56.5044                                                                  
  3869    92.4232    1269(35)          1254.2517           56.5140                                                                  
  3870    92.4432    984(32)          1007.7205           56.5236                                                                   
  3871    92.4632    751(29)           814.8854           56.5332                                                                   
  3872    92.4832    649(26)           679.6056           56.5429                                                                   
  3873    92.5032    557(24)           597.2485           56.5525                                                                   
  3874    92.5232    503(24)           561.5369           56.5622                                                                   
  3875    92.5432    513(24)           558.6212           56.5719                                                                   
  3876    92.5632    493(25)           601.5125           56.5816                                                                   
  3877    92.5832    559(26)           673.2985           56.5913                                                                   
  3878    92.6032    657(27)           755.5353           56.6010                                                                   
  3879    92.6232    773(28)           811.2119           56.6107                                                                   
  3880    92.6432    818(28)           799.4830           56.6205                                                                   
  3881    92.6632    753(27)           716.7927           56.6302                                                                   
  3882    92.6832    697(24)           600.2110           56.6400                                                                   
  3883    92.7032    526(22)           485.7749           56.6498                                                                   
  3884    92.7232    390(20)           390.1038           56.6596                                                                   
  3885    92.7432    331(18)           316.3696           56.6694                                                                   
  3886    92.7632    268(16)           262.2265           56.6792                                                                   
  3887    92.7832    199(15)           223.4227           56.6890                                                                   
  3888    92.8032    174(14)           195.6695           56.6989                                                                   
  3889    92.8232    177(13)           175.4583           56.7088                                                                   
  3890    92.8432    144(12)           155.9903           56.7186                                                                   
  3891    92.8632    131(12)           144.2738           56.7285                                                                   
  3892    92.8832    116(11)           125.5315           56.7384                                                                   
  3893    92.9032    118(11)           118.1788           56.7484                                                                   
  3894    92.9232    109(11)           112.0289           56.7583                                                                   
  3895    92.9432    102(10)           106.8186           56.7682                                                                   
  3896    92.9632    95(10)           102.3548           56.7782                                                                    
  3897    92.9832    105(10)            98.4947           56.7882                                                                   
  3898    93.0032    82(10)            95.1330           56.7981                                                                    
  3899    93.0232    113(10)            92.1827           56.8081                                                                   
  3900    93.0432    99(9)            89.5791           56.8182                                                                     
  3901    93.0632    88(9)            87.2666           56.8282                                                                     
  3902    93.0832    92(9)            85.2037           56.8382                                                                     
  3903    93.1032    86(9)            74.2620           56.8483                                                                     
  3904    93.1232    81(9)            73.0516           56.8583                                                                     
  3905    93.1432    71(8)            71.9677           56.8684                                                                     
  3906    93.1632    76(8)            70.9929           56.8785                                                                     
  3907    93.1832    73(8)            65.5629           56.8886                                                                     
  3908    93.2032    83(8)            64.9839           56.8987                                                                     
  3909    93.2232    81(8)            64.4629           56.9089                                                                     
  3910    93.2432    72(8)            63.9921           56.9190                                                                     
  3911    93.2632    73(8)            63.5658           56.9292                                                                     
  3912    93.2832    70(8)            63.1785           56.9393                                                                     
  3913    93.3032    71(8)            62.8256           56.9495                                                                     
  3914    93.3232    83(8)            62.5036           56.9597                                                                     
  3915    93.3432    64(8)            62.2087           56.9699                                                                     
  3916    93.3632    59(8)            61.9384           56.9802                                                                     
  3917    93.3832    68(8)            56.9904           56.9904                                                                     
  3918    93.4032    73(8)            57.0006           57.0006                                                                     
  3919    93.4232    80(8)            57.0109           57.0109                                                                     
  3920    93.4432    70(8)            57.0212           57.0212                                                                     
  3921    93.4632    62(8)            57.0315           57.0315                                                                     
  3922    93.4832    66(8)            57.0418           57.0418                                                                     
  3923    93.5032    62(8)            57.0521           57.0521                                                                     
  3924    93.5232    74(8)            57.0624           57.0624                                                                     
  3925    93.5432    71(8)            57.0728           57.0728                                                                     
  3926    93.5632    64(8)            57.0831           57.0831                                                                     
  3927    93.5832    70(8)            57.0935           57.0935                                                                     
  3928    93.6032    74(8)            57.1039           57.1039                                                                     
  3929    93.6232    71(8)            57.1143           57.1143                                                                     
  3930    93.6432    57(8)            57.1247           57.1247                                                                     
  3931    93.6632    66(8)            57.1351           57.1351                                                                     
  3932    93.6832    59(8)            57.1455           57.1455                                                                     
  3933    93.7032    62(8)            57.1560           57.1560                                                                     
  3934    93.7232    64(8)            57.1665           57.1665                                                                     
  3935    93.7432    73(8)            57.1769           57.1769                                                                     
  3936    93.7632    66(8)            57.1874           57.1874                                                                     
  3937    93.7832    62(8)            57.1979           57.1979                                                                     
  3938    93.8032    61(8)            57.2084           57.2084                                                                     
  3939    93.8232    68(8)            57.2190           57.2190                                                                     
  3940    93.8432    67(8)            57.2295           57.2295                                                                     
  3941    93.8632    64(8)            57.2401           57.2401                                                                     
  3942    93.8832    64(8)            57.2506           57.2506                                                                     
  3943    93.9032    60(8)            57.2612           57.2612                                                                     
  3944    93.9232    63(8)            57.2718           57.2718                                                                     
  3945    93.9432    69(8)            57.2824           57.2824                                                                     
  3946    93.9632    58(8)            57.2930           57.2930                                                                     
  3947    93.9832    61(8)            57.3037           57.3037                                                                     
  3948    94.0032    60(8)            57.3143           57.3143                                                                     
  3949    94.0232    61(8)            57.3250           57.3250                                                                     
  3950    94.0432    67(8)            57.3356           57.3356                                                                     
  3951    94.0632    57(8)            57.3463           57.3463                                                                     
  3952    94.0832    62(8)            57.3570           57.3570                                                                     
  3953    94.1032    69(8)            57.3677           57.3677                                                                     
  3954    94.1232    68(8)            57.3784           57.3784                                                                     
  3955    94.1432    65(8)            57.3892           57.3892                                                                     
  3956    94.1632    60(8)            57.3999           57.3999                                                                     
  3957    94.1832    55(8)            57.4107           57.4107                                                                     
  3958    94.2032    59(8)            57.4215           57.4215                                                                     
  3959    94.2232    55(8)            57.4323           57.4323                                                                     
  3960    94.2432    60(8)            57.4431           57.4431                                                                     
  3961    94.2632    55(8)            57.4539           57.4539                                                                     
  3962    94.2832    56(8)            57.4647           57.4647                                                                     
  3963    94.3032    59(8)            57.4755           57.4755                                                                     
  3964    94.3232    58(8)            57.4864           57.4864                                                                     
  3965    94.3432    57(8)            57.4973           57.4973                                                                     
  3966    94.3632    57(8)            57.5081           57.5081                                                                     
  3967    94.3832    61(8)            57.5190           57.5190                                                                     
  3968    94.4032    57(8)            57.5299           57.5299                                                                     
  3969    94.4232    48(8)            57.5409           57.5409                                                                     
  3970    94.4432    58(8)            57.5518           57.5518                                                                     
  3971    94.4632    57(8)            57.5627           57.5627                                                                     
  3972    94.4832    53(8)            57.5737           57.5737                                                                     
  3973    94.5032    54(8)            57.5847           57.5847                                                                     
  3974    94.5232    62(8)            57.5956           57.5956                                                                     
  3975    94.5432    59(8)            57.6066           57.6066                                                                     
  3976    94.5632    57(8)            57.6176           57.6176                                                                     
  3977    94.5832    59(8)            57.6287           57.6287                                                                     
  3978    94.6032    55(8)            57.6397           57.6397                                                                     
  3979    94.6232    58(8)            57.6507           57.6507                                                                     
  3980    94.6432    54(8)            57.6618           57.6618                                                                     
  3981    94.6632    64(8)            57.6729           57.6729                                                                     
  3982    94.6832    55(8)            57.6840           57.6840                                                                     
  3983    94.7032    52(8)            57.6951           57.6951                                                                     
  3984    94.7232    55(8)            57.7062           57.7062                                                                     
  3985    94.7432    61(8)            57.7173           57.7173                                                                     
  3986    94.7632    60(8)            57.7284           57.7284                                                                     
  3987    94.7832    56(8)            57.7396           57.7396                                                                     
  3988    94.8032    62(8)            57.7507           57.7507                                                                     
  3989    94.8232    42(8)            57.7619           57.7619                                                                     
  3990    94.8432    59(8)            57.7731           57.7731                                                                     
  3991    94.8632    59(8)            57.7843           57.7843                                                                     
  3992    94.8832    54(8)            57.7955           57.7955                                                                     
  3993    94.9032    54(8)            57.8067           57.8067                                                                     
  3994    94.9232    48(8)            57.8180           57.8180                                                                     
  3995    94.9432    55(8)            57.8292           57.8292                                                                     
  3996    94.9632    50(8)            57.8405           57.8405                                                                     
  3997    94.9832    60(8)            57.8518           57.8518                                                                     
  3998    95.0032    54(8)            57.8631           57.8631                                                                     
  3999    95.0232    46(8)            57.8744           57.8744                                                                     
  4000    95.0432    51(8)            57.8857           57.8857                                                                     
  4001    95.0632    51(8)            57.8970           57.8970                                                                     
  4002    95.0832    52(8)            57.9083           57.9083                                                                     
  4003    95.1032    65(8)            57.9197           57.9197                                                                     
  4004    95.1232    57(8)            57.9311           57.9311                                                                     
  4005    95.1432    53(8)            57.9424           57.9424                                                                     
  4006    95.1632    61(8)            57.9538           57.9538                                                                     
  4007    95.1832    58(8)            57.9652           57.9652                                                                     
  4008    95.2032    54(8)            57.9766           57.9766                                                                     
  4009    95.2232    57(8)            57.9881           57.9881                                                                     
  4010    95.2432    47(8)            57.9995           57.9995                                                                     
  4011    95.2632    59(8)            58.0110           58.0110                                                                     
  4012    95.2832    51(8)            58.0224           58.0224                                                                     
  4013    95.3032    65(8)            58.0339           58.0339                                                                     
  4014    95.3232    62(8)            58.0454           58.0454                                                                     
  4015    95.3432    48(8)            58.0569           58.0569                                                                     
  4016    95.3632    55(8)            58.0684           58.0684                                                                     
  4017    95.3832    60(8)            58.0799           58.0799                                                                     
  4018    95.4032    51(8)            58.0915           58.0915                                                                     
  4019    95.4232    50(8)            58.1030           58.1030                                                                     
  4020    95.4432    49(8)            58.1146           58.1146                                                                     
  4021    95.4632    55(8)            58.1262           58.1262                                                                     
  4022    95.4832    66(8)            58.1378           58.1378                                                                     
  4023    95.5032    57(8)            58.1494           58.1494                                                                     
  4024    95.5232    56(8)            58.1610           58.1610                                                                     
  4025    95.5432    56(8)            58.1726           58.1726                                                                     
  4026    95.5632    37(8)            58.1843           58.1843                                                                     
  4027    95.5832    54(8)            58.1959           58.1959                                                                     
  4028    95.6032    52(8)            58.2076           58.2076                                                                     
  4029    95.6232    52(8)            58.2192           58.2192                                                                     
  4030    95.6432    54(8)            58.2309           58.2309                                                                     
  4031    95.6632    55(8)            58.2426           58.2426                                                                     
  4032    95.6832    49(8)            58.2544           58.2544                                                                     
  4033    95.7032    51(8)            58.2661           58.2661                                                                     
  4034    95.7232    60(8)            58.2778           58.2778                                                                     
  4035    95.7432    55(8)            58.2896           58.2896                                                                     
  4036    95.7632    48(8)            58.3013           58.3013                                                                     
  4037    95.7832    47(8)            58.3131           58.3131                                                                     
  4038    95.8032    53(8)            58.3249           58.3249                                                                     
  4039    95.8232    51(8)            58.3367           58.3367                                                                     
  4040    95.8432    56(8)            58.3485           58.3485                                                                     
  4041    95.8632    56(8)            58.3603           58.3603                                                                     
  4042    95.8832    43(8)            58.3722           58.3722                                                                     
  4043    95.9032    54(8)            58.3840           58.3840                                                                     
  4044    95.9232    49(8)            58.3959           58.3959                                                                     
  4045    95.9432    51(8)            58.4078           58.4078                                                                     
  4046    95.9632    57(8)            58.4196           58.4196                                                                     
  4047    95.9832    51(8)            58.4315           58.4315                                                                     
  4048    96.0032    56(8)            58.4434           58.4434                                                                     
  4049    96.0232    56(8)            58.4554           58.4554                                                                     
  4050    96.0432    45(8)            58.4673           58.4673                                                                     
  4051    96.0632    49(8)            58.4793           58.4793                                                                     
  4052    96.0832    49(8)            58.4912           58.4912                                                                     
  4053    96.1032    59(8)            58.5032           58.5032                                                                     
  4054    96.1232    57(8)            58.5152           58.5152                                                                     
  4055    96.1432    54(8)            58.5272           58.5272                                                                     
  4056    96.1632    51(8)            58.5392           58.5392                                                                     
  4057    96.1832    55(8)            58.5512           58.5512                                                                     
  4058    96.2032    57(8)            58.5632           58.5632                                                                     
  4059    96.2232    55(8)            58.5753           58.5753                                                                     
  4060    96.2432    48(8)            58.5873           58.5873                                                                     
  4061    96.2632    48(8)            58.5994           58.5994                                                                     
  4062    96.2832    45(8)            58.6115           58.6115                                                                     
  4063    96.3032    53(8)            58.6236           58.6236                                                                     
  4064    96.3232    47(8)            58.6357           58.6357                                                                     
  4065    96.3432    49(8)            58.6478           58.6478                                                                     
  4066    96.3632    48(8)            58.6599           58.6599                                                                     
  4067    96.3832    51(8)            58.6720           58.6720                                                                     
  4068    96.4032    50(8)            58.6842           58.6842                                                                     
  4069    96.4232    54(8)            58.6964           58.6964                                                                     
  4070    96.4432    54(8)            58.7085           58.7085                                                                     
  4071    96.4632    47(8)            58.7207           58.7207                                                                     
  4072    96.4832    53(8)            58.7329           58.7329                                                                     
  4073    96.5032    50(8)            58.7451           58.7451                                                                     
  4074    96.5232    49(8)            58.7574           58.7574                                                                     
  4075    96.5432    55(8)            58.7696           58.7696                                                                     
  4076    96.5632    62(8)            58.7818           58.7818                                                                     
  4077    96.5832    46(8)            58.7941           58.7941                                                                     
  4078    96.6032    49(8)            58.8064           58.8064                                                                     
  4079    96.6232    50(8)            58.8186           58.8186                                                                     
  4080    96.6432    54(8)            58.8309           58.8309                                                                     
  4081    96.6632    55(8)            58.8432           58.8432                                                                     
  4082    96.6832    52(8)            58.8556           58.8556                                                                     
  4083    96.7032    54(8)            58.8679           58.8679                                                                     
  4084    96.7232    53(8)            58.8802           58.8802                                                                     
  4085    96.7432    50(8)            58.8926           58.8926                                                                     
  4086    96.7632    63(8)            58.9049           58.9049                                                                     
  4087    96.7832    44(8)            58.9173           58.9173                                                                     
  4088    96.8032    42(8)            58.9297           58.9297                                                                     
  4089    96.8232    45(8)            58.9421           58.9421                                                                     
  4090    96.8432    47(8)            58.9545           58.9545                                                                     
  4091    96.8632    59(8)            58.9669           58.9669                                                                     
  4092    96.8832    44(8)            58.9794           58.9794                                                                     
  4093    96.9032    50(8)            58.9918           58.9918                                                                     
  4094    96.9232    58(8)            59.0043           59.0043                                                                     
  4095    96.9432    50(8)            59.0167           59.0167                                                                     
  4096    96.9632    48(8)            59.0292           59.0292                                                                     
  4097    96.9832    52(8)            59.0417           59.0417                                                                     
  4098    97.0032    50(8)            59.0542           59.0542                                                                     
  4099    97.0232    53(8)            59.0667           59.0667                                                                     
  4100    97.0432    54(8)            59.0793           59.0793                                                                     
  4101    97.0632    46(8)            59.0918           59.0918                                                                     
  4102    97.0832    57(8)            59.1043           59.1043                                                                     
  4103    97.1032    43(8)            59.1169           59.1169                                                                     
  4104    97.1232    49(8)            59.1295           59.1295                                                                     
  4105    97.1432    53(8)            59.1421           59.1421                                                                     
  4106    97.1632    48(8)            59.1547           59.1547                                                                     
  4107    97.1832    47(8)            59.1673           59.1673                                                                     
  4108    97.2032    55(8)            59.1799           59.1799                                                                     
  4109    97.2232    50(8)            59.1925           59.1925                                                                     
  4110    97.2432    46(8)            59.2051           59.2051                                                                     
  4111    97.2632    60(8)            59.2178           59.2178                                                                     
  4112    97.2832    52(8)            59.2305           59.2305                                                                     
  4113    97.3032    50(8)            59.2431           59.2431                                                                     
  4114    97.3232    58(8)            59.2558           59.2558                                                                     
  4115    97.3432    50(8)            59.2685           59.2685                                                                     
  4116    97.3632    52(8)            59.2812           59.2812                                                                     
  4117    97.3832    52(8)            59.2939           59.2939                                                                     
  4118    97.4032    57(8)            59.3067           59.3067                                                                     
  4119    97.4232    48(8)            59.3194           59.3194                                                                     
  4120    97.4432    50(8)            59.3322           59.3322                                                                     
  4121    97.4632    55(8)            59.3449           59.3449                                                                     
  4122    97.4832    47(8)            59.3577           59.3577                                                                     
  4123    97.5032    59(8)            59.3705           59.3705                                                                     
  4124    97.5232    53(8)            59.3833           59.3833                                                                     
  4125    97.5432    50(8)            59.3961           59.3961                                                                     
  4126    97.5632    53(8)            59.4089           59.4089                                                                     
  4127    97.5832    48(8)            59.4218           59.4218                                                                     
  4128    97.6032    43(8)            59.4346           59.4346                                                                     
  4129    97.6232    47(8)            59.4475           59.4475                                                                     
  4130    97.6432    47(8)            59.4603           59.4603                                                                     
  4131    97.6632    47(8)            59.4732           59.4732                                                                     
  4132    97.6832    48(8)            59.4861           59.4861                                                                     
  4133    97.7032    50(8)            59.4990           59.4990                                                                     
  4134    97.7232    62(8)            59.5119           59.5119                                                                     
  4135    97.7432    57(8)            59.5248           59.5248                                                                     
  4136    97.7632    45(8)            59.5377           59.5377                                                                     
  4137    97.7832    47(8)            59.5507           59.5507                                                                     
  4138    97.8032    51(8)            59.5636           59.5636                                                                     
  4139    97.8232    43(8)            59.5766           59.5766                                                                     
  4140    97.8432    45(8)            59.5896           59.5896                                                                     
  4141    97.8632    45(8)            59.6026           59.6026                                                                     
  4142    97.8832    43(8)            59.6156           59.6156                                                                     
  4143    97.9032    51(8)            59.6286           59.6286                                                                     
  4144    97.9232    49(8)            59.6416           59.6416                                                                     
  4145    97.9432    47(8)            59.6546           59.6546                                                                     
  4146    97.9632    49(8)            59.6676           59.6676                                                                     
  4147    97.9832    58(8)            59.6807           59.6807                                                                     
  4148    98.0032    52(8)            59.6938           59.6938                                                                     
  4149    98.0232    48(8)            59.7068           59.7068                                                                     
  4150    98.0432    52(8)            59.7199           59.7199                                                                     
  4151    98.0632    47(8)            59.7330           59.7330                                                                     
  4152    98.0832    45(8)            59.7461           59.7461                                                                     
  4153    98.1032    48(8)            59.7592           59.7592                                                                     
  4154    98.1232    52(8)            59.7724           59.7724                                                                     
  4155    98.1432    54(8)            59.7855           59.7855                                                                     
  4156    98.1632    47(8)            59.7986           59.7986                                                                     
  4157    98.1832    45(8)            59.8118           59.8118                                                                     
  4158    98.2032    49(8)            59.8250           59.8250                                                                     
  4159    98.2232    50(8)            59.8381           59.8381                                                                     
  4160    98.2432    53(8)            59.8513           59.8513                                                                     
  4161    98.2632    55(8)            59.8645           59.8645                                                                     
  4162    98.2832    55(8)            59.8777           59.8777                                                                     
  4163    98.3032    54(8)            59.8910           59.8910                                                                     
  4164    98.3232    54(8)            59.9042           59.9042                                                                     
  4165    98.3432    52(8)            59.9174           59.9174                                                                     
  4166    98.3632    62(8)            59.9307           59.9307                                                                     
  4167    98.3832    57(8)            59.9439           59.9439                                                                     
  4168    98.4032    54(8)            59.9572           59.9572                                                                     
  4169    98.4232    51(8)            59.9705           59.9705                                                                     
  4170    98.4432    55(8)            59.9838           59.9838                                                                     
  4171    98.4632    49(8)            59.9971           59.9971                                                                     
  4172    98.4832    60(8)            60.0104           60.0104                                                                     
  4173    98.5032    54(8)            60.0237           60.0237                                                                     
  4174    98.5232    49(8)            60.0371           60.0371                                                                     
  4175    98.5432    53(8)            60.0504           60.0504                                                                     
  4176    98.5632    52(8)            60.0638           60.0638                                                                     
  4177    98.5832    50(8)            60.0771           60.0771                                                                     
  4178    98.6032    50(8)            60.0905           60.0905                                                                     
  4179    98.6232    44(8)            60.1039           60.1039                                                                     
  4180    98.6432    49(8)            60.1173           60.1173                                                                     
  4181    98.6632    55(8)            60.1307           60.1307                                                                     
  4182    98.6832    62(8)            60.1441           60.1441                                                                     
  4183    98.7032    54(8)            60.1575           60.1575                                                                     
  4184    98.7232    52(8)            60.1710           60.1710                                                                     
  4185    98.7432    54(8)            60.1844           60.1844                                                                     
  4186    98.7632    49(8)            60.1979           60.1979                                                                     
  4187    98.7832    52(8)            60.2113           60.2113                                                                     
  4188    98.8032    49(8)            60.2248           60.2248                                                                     
  4189    98.8232    56(8)            60.2383           60.2383                                                                     
  4190    98.8432    54(8)            62.0613           60.2518                                                                     
  4191    98.8632    56(8)            62.1640           60.2653                                                                     
  4192    98.8832    55(8)            62.2735           60.2788                                                                     
  4193    98.9032    56(8)            62.3904           60.2924                                                                     
  4194    98.9232    47(8)            62.5156           60.3059                                                                     
  4195    98.9432    67(8)            62.6498           60.3194                                                                     
  4196    98.9632    59(8)            62.7942           60.3330                                                                     
  4197    98.9832    64(8)            62.9499           60.3466                                                                     
  4198    99.0032    55(8)            63.1182           60.3601                                                                     
  4199    99.0232    62(8)            63.3006           60.3737                                                                     
  4200    99.0432    51(8)            63.4989           60.3873                                                                     
  4201    99.0632    61(8)            63.7153           60.4009                                                                     
  4202    99.0832    65(8)            63.9519           60.4145                                                                     
  4203    99.1032    56(8)            64.2117           60.4282                                                                     
  4204    99.1232    54(8)            64.4978           60.4418                                                                     
  4205    99.1432    59(8)            64.8142           60.4554                                                                     
  4206    99.1632    65(8)            65.1657           60.4691                                                                     
  4207    99.1832    68(8)            66.4797           60.4828                                                                     
  4208    99.2032    75(8)            66.9645           60.4964                                                                     
  4209    99.2232    76(8)            67.5078           60.5101                                                                     
  4210    99.2432    73(8)            68.1200           60.5238                                                                     
  4211    99.2632    65(8)            68.8134           60.5375                                                                     
  4212    99.2832    65(8)            69.6033           60.5512                                                                     
  4213    99.3032    66(8)            70.5096           60.5649                                                                     
  4214    99.3232    79(8)            71.5558           60.5787                                                                     
  4215    99.3432    66(9)            72.7738           60.5924                                                                     
  4216    99.3632    72(9)            74.2034           60.6062                                                                     
  4217    99.3832    69(9)            75.9004           60.6199                                                                     
  4218    99.4032    82(9)            77.9399           60.6337                                                                     
  4219    99.4232    80(9)            80.4355           60.6475                                                                     
  4220    99.4432    95(9)            83.5549           60.6613                                                                     
  4221    99.4632    84(9)            87.5603           60.6751                                                                     
  4222    99.4832    100(10)            92.8526           60.6889                                                                   
  4223    99.5032    113(10)           100.0107           60.7027                                                                   
  4224    99.5232    131(10)           109.8357           60.7165                                                                   
  4225    99.5432    137(11)           123.3091           60.7303                                                                   
  4226    99.5632    189(12)           141.5226           60.7442                                                                   
  4227    99.5832    235(13)           165.4030           60.7580                                                                   
  4228    99.6032    342(14)           195.2805           60.7719                                                                   
  4229    99.6232    487(15)           229.7618           60.7858                                                                   
  4230    99.6432    562(16)           263.9286           60.7996                                                                   
  4231    99.6632    631(17)           288.0579           60.8135                                                                   
  4232    99.6832    640(17)           291.7419           60.8274                                                                   
  4233    99.7032    604(17)           273.4084           60.8413                                                                   
  4234    99.7232    444(16)           242.0910           60.8552                                                                   
  4235    99.7432    338(14)           208.4619           60.8692                                                                   
  4236    99.7632    292(13)           178.8024           60.8831                                                                   
  4237    99.7832    213(12)           155.2982           60.8971                                                                   
  4238    99.8032    196(12)           138.0957           60.9110                                                                   
  4239    99.8232    163(11)           126.6025           60.9250                                                                   
  4240    99.8432    155(11)           120.0659           60.9389                                                                   
  4241    99.8632    140(11)           117.8976           60.9529                                                                   
  4242    99.8832    154(11)           122.8167           60.9669                                                                   
  4243    99.9032    183(11)           128.7049           60.9809                                                                   
  4244    99.9232    197(12)           138.4644           60.9949                                                                   
  4245    99.9432    239(12)           151.7223           61.0089                                                                   
  4246    99.9632    279(13)           167.0930           61.0229                                                                   
  4247    99.9832    311(13)           181.1513           61.0370                                                                   
  4248   100.0032    351(14)           188.4323           61.0510                                                                   
  4249   100.0232    344(14)           184.8007           61.0651                                                                   
  4250   100.0432    312(13)           171.5666           61.0791                                                                   
  4251   100.0632    290(12)           153.9830           61.0932                                                                   
  4252   100.0832    218(12)           136.6588           61.1073                                                                   
  4253   100.1032    185(11)           121.8065           61.1214                                                                   
  4254   100.1232    168(10)           110.0021           61.1354                                                                   
  4255   100.1432    148(10)           101.0378           61.1496                                                                   
  4256   100.1632    132(10)            94.4296           61.1637                                                                   
  4257   100.1832    115(9)            89.6452           61.1778                                                                    
  4258   100.2032    107(9)            87.6748           61.1919                                                                    
  4259   100.2232    104(9)            85.2269           61.2060                                                                    
  4260   100.2432    103(9)            83.4473           61.2202                                                                    
  4261   100.2632    97(9)            82.1452           61.2343                                                                     
  4262   100.2832    107(9)            81.1942           61.2485                                                                    
  4263   100.3032    106(9)            80.5134           61.2627                                                                    
  4264   100.3232    92(9)            80.0511           61.2768                                                                     
  4265   100.3432    95(9)            79.7721           61.2910                                                                     
  4266   100.3632    104(9)            79.6534           61.3052                                                                    
  4267   100.3832    94(9)            79.6790           61.3194                                                                     
  4268   100.4032    86(9)            79.8389           61.3336                                                                     
  4269   100.4232    84(9)            80.1273           61.3479                                                                     
  4270   100.4432    96(9)            80.5420           61.3621                                                                     
  4271   100.4632    85(9)            81.0843           61.3763                                                                     
  4272   100.4832    98(9)            81.7586           61.3906                                                                     
  4273   100.5032    92(9)            82.5721           61.4048                                                                     
  4274   100.5232    96(9)            81.7885           61.4191                                                                     
  4275   100.5432    76(9)            82.9955           61.4333                                                                     
  4276   100.5632    95(9)            84.3810           61.4476                                                                     
  4277   100.5832    83(9)            85.9681           61.4619                                                                     
  4278   100.6032    100(9)            87.7884           61.4762                                                                    
  4279   100.6232    104(9)            89.8787           61.4905                                                                    
  4280   100.6432    93(10)            92.2885           61.5048                                                                    
  4281   100.6632    102(10)            95.0815           61.5191                                                                   
  4282   100.6832    91(10)            98.3375           61.5335                                                                    
  4283   100.7032    98(10)           102.1669           61.5478                                                                    
  4284   100.7232    103(10)           106.7097           61.5621                                                                   
  4285   100.7432    105(11)           112.1585           61.5765                                                                   
  4286   100.7632    107(11)           118.7561           61.5908                                                                   
  4287   100.7832    91(11)           126.8222           61.6052                                                                    
  4288   100.8032    111(12)           136.7593           61.6196                                                                   
  4289   100.8232    122(12)           149.0430           61.6339                                                                   
  4290   100.8432    117(13)           164.2463           61.6483                                                                   
  4291   100.8632    135(13)           182.1171           61.6627                                                                   
  4292   100.8832    147(14)           205.0556           61.6771                                                                   
  4293   100.9032    170(15)           232.6514           61.6915                                                                   
  4294   100.9232    212(16)           265.0756           61.7060                                                                   
  4295   100.9432    213(17)           301.6299           61.7204                                                                   
  4296   100.9632    307(18)           340.1048           61.7348                                                                   
  4297   100.9832    366(19)           376.0142           61.7492                                                                   
  4298   101.0032    412(20)           402.7065           61.7637                                                                   
  4299   101.0232    457(20)           413.6428           61.7782                                                                   
  4300   101.0432    483(20)           406.0216           61.7926                                                                   
  4301   101.0632    451(20)           382.7735           61.8071                                                                   
  4302   101.0832    390(19)           350.6111           61.8216                                                                   
  4303   101.1032    343(18)           316.2834           61.8360                                                                   
  4304   101.1232    258(17)           284.4866           61.8505                                                                   
  4305   101.1432    200(16)           257.6338           61.8650                                                                   
  4306   101.1632    191(15)           236.6374           61.8795                                                                   
  4307   101.1832    187(15)           221.6479           61.8941                                                                   
  4308   101.2032    166(15)           212.4548           61.9086                                                                   
  4309   101.2232    173(14)           208.7518           61.9231                                                                   
  4310   101.2432    166(14)           210.1696           61.9376                                                                   
  4311   101.2632    160(15)           216.2231           61.9522                                                                   
  4312   101.2832    177(15)           226.1099           61.9667                                                                   
  4313   101.3032    186(15)           238.3686           61.9813                                                                   
  4314   101.3232    202(16)           250.4927           61.9959                                                                   
  4315   101.3432    240(16)           259.0019           62.0104                                                                   
  4316   101.3632    264(16)           260.4260           62.0250                                                                   
  4317   101.3832    275(16)           253.1099           62.0396                                                                   
  4318   101.4032    262(15)           238.2323           62.0542                                                                   
  4319   101.4232    223(15)           218.8972           62.0688                                                                   
  4320   101.4432    201(14)           198.3628           62.0834                                                                   
  4321   101.4632    173(13)           178.8642           62.0980                                                                   
  4322   101.4832    145(13)           161.5161           62.1126                                                                   
  4323   101.5032    139(12)           146.6761           62.1272                                                                   
  4324   101.5232    106(12)           134.2587           62.1419                                                                   
  4325   101.5432    108(11)           124.0147           62.1565                                                                   
  4326   101.5632    95(11)           115.6178           62.1712                                                                    
  4327   101.5832    89(10)           108.7570           62.1858                                                                    
  4328   101.6032    91(10)           103.1379           62.2005                                                                    
  4329   101.6232    77(10)            98.5156           62.2151                                                                    
  4330   101.6432    69(10)            94.6817           62.2298                                                                    
  4331   101.6632    75(10)            91.4694           62.2445                                                                    
  4332   101.6832    63(9)            88.7513           62.2592                                                                     
  4333   101.7032    60(9)            86.4251           62.2739                                                                     
  4334   101.7232    69(9)            84.4164           62.2886                                                                     
  4335   101.7432    86(9)            82.6651           62.3033                                                                     
  4336   101.7632    54(9)            81.1277           62.3180                                                                     
  4337   101.7832    67(9)            79.7688           62.3327                                                                     
  4338   101.8032    62(9)            78.5603           62.3474                                                                     
  4339   101.8232    58(9)            77.4811           62.3622                                                                     
  4340   101.8432    66(9)            76.5123           62.3769                                                                     
  4341   101.8632    57(9)            75.6399           62.3916                                                                     
  4342   101.8832    64(9)            74.8508           62.4064                                                                     
  4343   101.9032    59(9)            74.1352           62.4211                                                                     
  4344   101.9232    64(9)            73.4837           62.4359                                                                     
  4345   101.9432    54(9)            72.8895           62.4507                                                                     
  4346   101.9632    58(9)            72.3456           62.4654                                                                     
  4347   101.9832    56(8)            71.8466           62.4802                                                                     
  4348   102.0032    62(8)            71.3879           62.4950                                                                     
  4349   102.0232    68(8)            70.9650           62.5098                                                                     
  4350   102.0432    61(8)            70.5746           62.5246                                                                     
  4351   102.0632    65(8)            70.2133           62.5394                                                                     
  4352   102.0832    57(8)            69.8785           62.5542                                                                     
  4353   102.1032    58(8)            69.5675           62.5690                                                                     
  4354   102.1232    53(8)            69.2784           62.5839                                                                     
  4355   102.1432    48(8)            69.0092           62.5987                                                                     
  4356   102.1632    55(8)            68.7579           62.6135                                                                     
  4357   102.1832    56(8)            65.5700           62.6284                                                                     
  4358   102.2032    57(8)            65.4489           62.6432                                                                     
  4359   102.2232    49(8)            65.3370           62.6581                                                                     
  4360   102.2432    51(8)            65.2334           62.6729                                                                     
  4361   102.2632    62(8)            65.1375           62.6878                                                                     
  4362   102.2832    60(8)            65.0486           62.7026                                                                     
  4363   102.3032    48(8)            64.9661           62.7175                                                                     
  4364   102.3232    50(8)            64.8895           62.7324                                                                     
  4365   102.3432    57(8)            64.8184           62.7473                                                                     
  4366   102.3632    55(8)            64.7523           62.7622                                                                     
  4367   102.3832    45(8)            64.6908           62.7771                                                                     
  4368   102.4032    61(8)            64.6337           62.7920                                                                     
  4369   102.4232    51(8)            64.5805           62.8069                                                                     
  4370   102.4432    68(8)            64.5310           62.8218                                                                     
  4371   102.4632    54(8)            64.4850           62.8367                                                                     
  4372   102.4832    56(8)            64.4421           62.8516                                                                     
  4373   102.5032    46(8)            64.4023           62.8666                                                                     
  4374   102.5232    62(8)            64.3652           62.8815                                                                     
  4375   102.5432    51(8)            62.8964           62.8964                                                                     
  4376   102.5632    46(8)            62.9114           62.9114                                                                     
  4377   102.5832    53(8)            62.9263           62.9263                                                                     
  4378   102.6032    50(8)            62.9413           62.9413                                                                     
  4379   102.6232    58(8)            62.9562           62.9562                                                                     
  4380   102.6432    43(8)            62.9712           62.9712                                                                     
  4381   102.6632    57(8)            62.9862           62.9862                                                                     
  4382   102.6832    54(8)            63.0012           63.0012                                                                     
  4383   102.7032    56(8)            63.0161           63.0161                                                                     
  4384   102.7232    52(8)            63.0311           63.0311                                                                     
  4385   102.7432    52(8)            63.0461           63.0461                                                                     
  4386   102.7632    51(8)            63.0611           63.0611                                                                     
  4387   102.7832    56(8)            63.0761           63.0761                                                                     
  4388   102.8032    68(8)            63.0911           63.0911                                                                     
  4389   102.8232    55(8)            63.1061           63.1061                                                                     
  4390   102.8432    51(8)            63.1211           63.1211                                                                     
  4391   102.8632    55(8)            63.1361           63.1361                                                                     
  4392   102.8832    56(8)            63.1512           63.1512                                                                     
  4393   102.9032    61(8)            63.1662           63.1662                                                                     
  4394   102.9232    68(8)            63.1812           63.1812                                                                     
  4395   102.9432    49(8)            63.1963           63.1963                                                                     
  4396   102.9632    51(8)            63.2113           63.2113                                                                     
  4397   102.9832    56(8)            63.2263           63.2263                                                                     
  4398   103.0032    58(8)            63.2414           63.2414                                                                     
  4399   103.0232    49(8)            63.2564           63.2564                                                                     
  4400   103.0432    46(8)            63.2715           63.2715                                                                     
  4401   103.0632    52(8)            63.2866           63.2866                                                                     
  4402   103.0832    54(8)            63.3016           63.3016                                                                     
  4403   103.1032    60(8)            64.2833           63.3167                                                                     
  4404   103.1232    51(8)            64.3408           63.3318                                                                     
  4405   103.1432    49(8)            64.4011           63.3469                                                                     
  4406   103.1632    63(8)            64.4645           63.3619                                                                     
  4407   103.1832    62(8)            64.5313           63.3770                                                                     
  4408   103.2032    51(8)            64.6019           63.3921                                                                     
  4409   103.2232    54(8)            64.6764           63.4072                                                                     
  4410   103.2432    68(8)            64.7555           63.4223                                                                     
  4411   103.2632    52(8)            64.8396           63.4374                                                                     
  4412   103.2832    60(8)            64.9290           63.4525                                                                     
  4413   103.3032    52(8)            65.0246           63.4676                                                                     
  4414   103.3232    53(8)            65.1268           63.4828                                                                     
  4415   103.3432    59(8)            65.2366           63.4979                                                                     
  4416   103.3632    63(8)            65.3547           63.5130                                                                     
  4417   103.3832    54(8)            65.4821           63.5281                                                                     
  4418   103.4032    53(8)            65.6201           63.5433                                                                     
  4419   103.4232    56(8)            65.7700           63.5584                                                                     
  4420   103.4432    60(8)            65.9332           63.5735                                                                     
  4421   103.4632    56(8)            66.5968           63.5887                                                                     
  4422   103.4832    52(8)            66.8140           63.6038                                                                     
  4423   103.5032    55(8)            67.0526           63.6190                                                                     
  4424   103.5232    59(8)            67.3157           63.6341                                                                     
  4425   103.5432    65(8)            67.6070           63.6493                                                                     
  4426   103.5632    50(8)            67.9310           63.6644                                                                     
  4427   103.5832    55(8)            68.2931           63.6796                                                                     
  4428   103.6032    60(8)            68.6999           63.6948                                                                     
  4429   103.6232    53(8)            69.1592           63.7099                                                                     
  4430   103.6432    51(8)            69.6809           63.7251                                                                     
  4431   103.6632    62(8)            70.2776           63.7403                                                                     
  4432   103.6832    65(8)            70.9645           63.7555                                                                     
  4433   103.7032    53(9)            72.5651           63.7707                                                                     
  4434   103.7232    64(9)            73.5355           63.7858                                                                     
  4435   103.7432    69(9)            74.6834           63.8010                                                                     
  4436   103.7632    67(9)            76.0605           63.8162                                                                     
  4437   103.7832    71(9)            77.7430           63.8314                                                                     
  4438   103.8032    71(9)            79.8423           63.8466                                                                     
  4439   103.8232    78(9)            82.5141           63.8618                                                                     
  4440   103.8432    77(9)            85.9785           63.8770                                                                     
  4441   103.8632    73(10)            90.5182           63.8922                                                                    
  4442   103.8832    85(10)            96.4866           63.9074                                                                    
  4443   103.9032    72(10)           104.2711           63.9227                                                                    
  4444   103.9232    83(11)           114.2582           63.9379                                                                    
  4445   103.9432    108(11)           126.6988           63.9531                                                                   
  4446   103.9632    125(12)           141.4950           63.9683                                                                   
  4447   103.9832    123(13)           157.7262           63.9835                                                                   
  4448   104.0032    152(13)           172.9777           63.9988                                                                   
  4449   104.0232    163(14)           183.2808           64.0140                                                                   
  4450   104.0432    155(14)           184.8759           64.0292                                                                   
  4451   104.0632    162(13)           177.2795           64.0445                                                                   
  4452   104.0832    160(13)           164.1729           64.0597                                                                   
  4453   104.1032    127(12)           148.9341           64.0749                                                                   
  4454   104.1232    104(12)           134.8201           64.0902                                                                   
  4455   104.1432    114(11)           123.0854           64.1054                                                                   
  4456   104.1632    100(11)           114.0319           64.1207                                                                   
  4457   104.1832    97(10)           108.3015           64.1359                                                                    
  4458   104.2032    85(10)           104.1650           64.1512                                                                    
  4459   104.2232    88(10)           102.1059           64.1664                                                                    
  4460   104.2432    91(10)           103.5494           64.1817                                                                    
  4461   104.2632    98(10)           105.2653           64.1969                                                                    
  4462   104.2832    107(10)           108.7523           64.2122                                                                   
  4463   104.3032    103(11)           113.9840           64.2274                                                                   
  4464   104.3232    107(11)           120.8030           64.2427                                                                   
  4465   104.3432    118(11)           128.6947           64.2580                                                                   
  4466   104.3632    139(12)           137.2358           64.2733                                                                   
  4467   104.3832    140(12)           142.9355           64.2885                                                                   
  4468   104.4032    143(12)           144.7781           64.3038                                                                   
  4469   104.4232    159(12)           142.6507           64.3191                                                                   
  4470   104.4432    138(12)           138.3300           64.3343                                                                   
  4471   104.4632    129(12)           134.1124           64.3496                                                                   
  4472   104.4832    129(11)           131.6861           64.3649                                                                   
  4473   104.5032    136(11)           131.9955           64.3802                                                                   
  4474   104.5232    135(12)           135.4930           64.3955                                                                   
  4475   104.5432    138(12)           142.6677           64.4107                                                                   
  4476   104.5632    159(12)           152.5085           64.4260                                                                   
  4477   104.5832    161(13)           164.3215           64.4413                                                                   
  4478   104.6032    184(13)           176.5648           64.4566                                                                   
  4479   104.6232    203(14)           184.0286           64.4719                                                                   
  4480   104.6432    205(14)           184.2195           64.4872                                                                   
  4481   104.6632    205(13)           176.9141           64.5025                                                                   
  4482   104.6832    194(13)           165.0807           64.5178                                                                   
  4483   104.7032    174(12)           152.2869           64.5331                                                                   
  4484   104.7232    148(12)           141.2530           64.5483                                                                   
  4485   104.7432    152(11)           132.1940           64.5636                                                                   
  4486   104.7632    136(11)           125.7231           64.5789                                                                   
  4487   104.7832    141(11)           121.7535           64.5942                                                                   
  4488   104.8032    131(11)           120.1308           64.6095                                                                   
  4489   104.8232    150(11)           120.7593           64.6248                                                                   
  4490   104.8432    144(11)           123.6792           64.6401                                                                   
  4491   104.8632    147(11)           129.1202           64.6554                                                                   
  4492   104.8832    145(12)           137.5448           64.6707                                                                   
  4493   104.9032    134(12)           149.6235           64.6861                                                                   
  4494   104.9232    165(13)           166.1627           64.7013                                                                   
  4495   104.9432    196(14)           187.8015           64.7167                                                                   
  4496   104.9632    212(15)           214.5826           64.7320                                                                   
  4497   104.9832    230(16)           244.5279           64.7473                                                                   
  4498   105.0032    272(17)           277.2719           64.7626                                                                   
  4499   105.0232    314(18)           308.2296           64.7779                                                                   
  4500   105.0432    307(18)           330.9744           64.7932                                                                   
  4501   105.0632    350(18)           336.7787           64.8085                                                                   
  4502   105.0832    374(18)           321.7857           64.8238                                                                   
  4503   105.1032    324(17)           292.6189           64.8391                                                                   
  4504   105.1232    301(16)           260.2533           64.8544                                                                   
  4505   105.1432    276(15)           232.2303           64.8697                                                                   
  4506   105.1632    221(15)           211.6771           64.8851                                                                   
  4507   105.1832    209(14)           199.2267           64.9004                                                                   
  4508   105.2032    192(14)           194.4313           64.9157                                                                   
  4509   105.2232    194(14)           196.4869           64.9310                                                                   
  4510   105.2432    205(14)           204.4632           64.9463                                                                   
  4511   105.2632    207(15)           217.2830           64.9616                                                                   
  4512   105.2832    247(15)           233.5956           64.9769                                                                   
  4513   105.3032    282(16)           251.7726           64.9922                                                                   
  4514   105.3232    271(16)           270.3010           65.0075                                                                   
  4515   105.3432    314(17)           287.9113           65.0229                                                                   
  4516   105.3632    331(17)           305.1305           65.0382                                                                   
  4517   105.3832    356(18)           319.9962           65.0535                                                                   
  4518   105.4032    328(18)           328.6054           65.0688                                                                   
  4519   105.4232    324(18)           325.5698           65.0841                                                                   
  4520   105.4432    316(18)           308.1952           65.0994                                                                   
  4521   105.4632    298(17)           280.1365           65.1147                                                                   
  4522   105.4832    249(16)           248.7253           65.1300                                                                   
  4523   105.5032    234(15)           219.8033           65.1453                                                                   
  4524   105.5232    193(14)           196.0666           65.1607                                                                   
  4525   105.5432    186(13)           178.1843           65.1760                                                                   
  4526   105.5632    153(13)           165.8371           65.1913                                                                   
  4527   105.5832    145(13)           157.5871           65.2066                                                                   
  4528   105.6032    147(12)           154.2013           65.2219                                                                   
  4529   105.6232    150(12)           154.0004           65.2372                                                                   
  4530   105.6432    125(12)           155.9819           65.2525                                                                   
  4531   105.6632    148(13)           158.9805           65.2678                                                                   
  4532   105.6832    148(13)           161.7975           65.2831                                                                   
  4533   105.7032    173(13)           163.5445           65.2984                                                                   
  4534   105.7232    165(13)           163.8215           65.3137                                                                   
  4535   105.7432    161(13)           162.4282           65.3290                                                                   
  4536   105.7632    181(13)           158.9642           65.3443                                                                   
  4537   105.7832    154(12)           153.0154           65.3596                                                                   
  4538   105.8032    130(12)           144.7901           65.3749                                                                   
  4539   105.8232    131(12)           135.2854           65.3902                                                                   
  4540   105.8432    119(11)           125.6967           65.4055                                                                   
  4541   105.8632    121(11)           116.8876           65.4208                                                                   
  4542   105.8832    108(10)           109.2436           65.4361                                                                   
  4543   105.9032    98(10)           101.3121           65.4513                                                                    
  4544   105.9232    94(10)            96.1161           65.4666                                                                    
  4545   105.9432    82(10)            91.5093           65.4819                                                                    
  4546   105.9632    79(9)            88.1166           65.4972                                                                     
  4547   105.9832    65(9)            85.3712           65.5125                                                                     
  4548   106.0032    63(9)            83.1379           65.5278                                                                     
  4549   106.0232    66(9)            81.3021           65.5431                                                                     
  4550   106.0432    65(9)            79.7758           65.5583                                                                     
  4551   106.0632    73(9)            78.4895           65.5736                                                                     
  4552   106.0832    69(9)            77.3926           65.5889                                                                     
  4553   106.1032    66(9)            76.4459           65.6042                                                                     
  4554   106.1232    65(9)            75.6217           65.6194                                                                     
  4555   106.1432    60(9)            74.8979           65.6347                                                                     
  4556   106.1632    68(9)            74.2578           65.6500                                                                     
  4557   106.1832    68(9)            73.6889           65.6652                                                                     
  4558   106.2032    61(9)            73.1803           65.6805                                                                     
  4559   106.2232    59(9)            72.7242           65.6958                                                                     
  4560   106.2432    68(9)            72.3130           65.7110                                                                     
  4561   106.2632    66(8)            71.1633           65.7263                                                                     
  4562   106.2832    62(8)            70.8619           65.7415                                                                     
  4563   106.3032    59(8)            70.5884           65.7568                                                                     
  4564   106.3232    61(8)            70.3397           65.7720                                                                     
  4565   106.3432    62(8)            70.1128           65.7873                                                                     
  4566   106.3632    69(8)            69.9055           65.8025                                                                     
  4567   106.3832    60(8)            69.7155           65.8178                                                                     
  4568   106.4032    60(8)            69.5411           65.8330                                                                     
  4569   106.4232    59(8)            69.3806           65.8482                                                                     
  4570   106.4432    63(8)            69.2328           65.8635                                                                     
  4571   106.4632    65(8)            68.3251           65.8787                                                                     
  4572   106.4832    59(8)            67.5095           65.8939                                                                     
  4573   106.5032    57(8)            67.4432           65.9091                                                                     
  4574   106.5232    63(8)            67.3829           65.9244                                                                     
  4575   106.5432    55(8)            67.3281           65.9396                                                                     
  4576   106.5632    74(8)            67.2781           65.9548                                                                     
  4577   106.5832    64(8)            67.2326           65.9700                                                                     
  4578   106.6032    55(8)            67.1912           65.9852                                                                     
  4579   106.6232    55(8)            67.1535           66.0004                                                                     
  4580   106.6432    55(8)            67.1192           66.0156                                                                     
  4581   106.6632    62(8)            67.0880           66.0309                                                                     
  4582   106.6832    57(8)            67.0596           66.0460                                                                     
  4583   106.7032    64(8)            67.0339           66.0612                                                                     
  4584   106.7232    57(8)            67.0106           66.0764                                                                     
  4585   106.7432    69(8)            66.9895           66.0916                                                                     
  4586   106.7632    62(8)            66.9706           66.1068                                                                     
  4587   106.7832    59(8)            66.9535           66.1220                                                                     
  4588   106.8032    60(8)            66.9381           66.1372                                                                     
  4589   106.8232    53(8)            66.9245           66.1523                                                                     
  4590   106.8432    55(8)            66.1675           66.1675                                                                     
  4591   106.8632    63(8)            66.1827           66.1827                                                                     
  4592   106.8832    52(8)            66.1978           66.1978                                                                     
  4593   106.9032    65(8)            66.2130           66.2130                                                                     
  4594   106.9232    60(8)            66.2281           66.2281                                                                     
  4595   106.9432    68(8)            66.2433           66.2433                                                                     
  4596   106.9632    58(8)            66.2584           66.2584                                                                     
  4597   106.9832    59(8)            66.2736           66.2736                                                                     
  4598   107.0032    63(8)            66.2887           66.2887                                                                     
  4599   107.0232    75(8)            66.3039           66.3039                                                                     
  4600   107.0432    59(8)            66.3190           66.3190                                                                     
  4601   107.0632    61(8)            66.3341           66.3341                                                                     
  4602   107.0832    71(8)            66.3492           66.3492                                                                     
  4603   107.1032    55(8)            66.3644           66.3644                                                                     
  4604   107.1232    61(8)            66.3795           66.3795                                                                     
  4605   107.1432    57(8)            66.3946           66.3946                                                                     
  4606   107.1632    59(8)            66.4097           66.4097                                                                     
  4607   107.1832    66(8)            66.4248           66.4248                                                                     
  4608   107.2032    55(8)            66.4399           66.4399                                                                     
  4609   107.2232    58(8)            66.4550           66.4550                                                                     
  4610   107.2432    70(8)            66.4701           66.4701                                                                     
  4611   107.2632    73(8)            66.4851           66.4851                                                                     
  4612   107.2832    60(8)            66.5002           66.5002                                                                     
  4613   107.3032    71(8)            66.5153           66.5153                                                                     
  4614   107.3232    69(8)            66.5303           66.5303                                                                     
  4615   107.3432    64(8)            66.5454           66.5454                                                                     
  4616   107.3632    68(8)            66.5605           66.5605                                                                     
  4617   107.3832    57(8)            66.5755           66.5755                                                                     
  4618   107.4032    73(8)            66.5906           66.5906                                                                     
  4619   107.4232    75(8)            66.6056           66.6056                                                                     
  4620   107.4432    62(8)            66.6206           66.6206                                                                     
  4621   107.4632    64(8)            66.6357           66.6357                                                                     
  4622   107.4832    62(8)            70.2085           66.6507                                                                     
  4623   107.5032    68(8)            70.3691           66.6657                                                                     
  4624   107.5232    59(8)            70.5388           66.6807                                                                     
  4625   107.5432    65(8)            70.7184           66.6957                                                                     
  4626   107.5632    65(8)            70.9087           66.7107                                                                     
  4627   107.5832    70(8)            71.1105           66.7257                                                                     
  4628   107.6032    90(8)            71.3252           66.7407                                                                     
  4629   107.6232    60(8)            71.5537           66.7557                                                                     
  4630   107.6432    82(8)            71.7973           66.7707                                                                     
  4631   107.6632    75(8)            72.0577           66.7857                                                                     
  4632   107.6832    74(9)            72.3363           66.8006                                                                     
  4633   107.7032    77(9)            72.6352           66.8156                                                                     
  4634   107.7232    70(9)            72.9562           66.8306                                                                     
  4635   107.7432    81(9)            73.3020           66.8455                                                                     
  4636   107.7632    77(9)            73.6750           66.8605                                                                     
  4637   107.7832    74(9)            74.0784           66.8754                                                                     
  4638   107.8032    78(9)            74.5159           66.8903                                                                     
  4639   107.8232    77(9)            74.9911           66.9053                                                                     
  4640   107.8432    75(9)            75.5092           66.9202                                                                     
  4641   107.8632    78(9)            77.8266           66.9351                                                                     
  4642   107.8832    83(9)            78.5178           66.9500                                                                     
  4643   107.9032    84(9)            79.2747           66.9649                                                                     
  4644   107.9232    89(9)            80.1067           66.9798                                                                     
  4645   107.9432    77(9)            81.0236           66.9947                                                                     
  4646   107.9632    87(9)            82.0380           67.0095                                                                     
  4647   107.9832    82(9)            83.1650           67.0244                                                                     
  4648   108.0032    94(9)            84.4212           67.0393                                                                     
  4649   108.0232    90(9)            88.8795           67.0541                                                                     
  4650   108.0432    87(10)            90.5784           67.0690                                                                    
  4651   108.0632    105(10)            92.4917           67.0838                                                                   
  4652   108.0832    83(10)            94.6566           67.0987                                                                    
  4653   108.1032    115(10)            97.1233           67.1135                                                                   
  4654   108.1232    108(10)            99.9514           67.1283                                                                   
  4655   108.1432    99(10)           103.2219           67.1431                                                                    
  4656   108.1632    117(10)           107.0435           67.1580                                                                   
  4657   108.1832    107(11)           111.5598           67.1728                                                                   
  4658   108.2032    126(11)           116.9790           67.1876                                                                   
  4659   108.2232    135(11)           123.5837           67.2023                                                                   
  4660   108.2432    135(11)           131.7785           67.2171                                                                   
  4661   108.2632    152(12)           142.1001           67.2319                                                                   
  4662   108.2832    167(12)           155.2620           67.2467                                                                   
  4663   108.3032    186(13)           172.1576           67.2614                                                                   
  4664   108.3232    210(14)           193.8111           67.2762                                                                   
  4665   108.3432    254(15)           221.3535           67.2909                                                                   
  4666   108.3632    289(16)           255.7949           67.3056                                                                   
  4667   108.3832    397(17)           297.7790           67.3204                                                                   
  4668   108.4032    519(19)           348.2875           67.3351                                                                   
  4669   108.4232    701(20)           401.5928           67.3498                                                                   
  4670   108.4432    804(21)           452.2573           67.3645                                                                   
  4671   108.4632    801(22)           489.1504           67.3792                                                                   
  4672   108.4832    744(22)           500.9084           67.3939                                                                   
  4673   108.5032    643(22)           483.7364           67.4086                                                                   
  4674   108.5232    555(21)           444.6470           67.4232                                                                   
  4675   108.5432    457(20)           395.8245           67.4379                                                                   
  4676   108.5632    396(19)           347.2951           67.4526                                                                   
  4677   108.5832    339(17)           304.6245           67.4672                                                                   
  4678   108.6032    294(16)           269.8443           67.4818                                                                   
  4679   108.6232    278(16)           243.2041           67.4965                                                                   
  4680   108.6432    246(15)           224.1505           67.5111                                                                   
  4681   108.6632    256(15)           211.9400           67.5257                                                                   
  4682   108.6832    237(14)           205.9119           67.5403                                                                   
  4683   108.7032    249(14)           205.5866           67.5549                                                                   
  4684   108.7232    237(15)           210.7208           67.5695                                                                   
  4685   108.7432    255(15)           221.2679           67.5840                                                                   
  4686   108.7632    266(16)           243.5475           67.5986                                                                   
  4687   108.7832    346(16)           265.0426           67.6132                                                                   
  4688   108.8032    424(17)           291.0122           67.6277                                                                   
  4689   108.8232    493(18)           319.1846           67.6422                                                                   
  4690   108.8432    539(19)           345.2451           67.6568                                                                   
  4691   108.8632    534(19)           363.5093           67.6713                                                                   
  4692   108.8832    500(19)           370.1855           67.6858                                                                   
  4693   108.9032    477(19)           366.6273           67.7003                                                                   
  4694   108.9232    436(19)           358.6689           67.7148                                                                   
  4695   108.9432    420(19)           352.8480           67.7293                                                                   
  4696   108.9632    377(19)           355.4529           67.7437                                                                   
  4697   108.9832    387(19)           365.5008           67.7582                                                                   
  4698   109.0032    393(20)           385.0237           67.7727                                                                   
  4699   109.0232    408(20)           412.5400           67.7871                                                                   
  4700   109.0432    484(21)           443.9415           67.8015                                                                   
  4701   109.0632    508(22)           471.9346           67.8160                                                                   
  4702   109.0832    573(22)           487.1423           67.8304                                                                   
  4703   109.1032    603(22)           482.5040           67.8448                                                                   
  4704   109.1232    549(21)           457.9506           67.8592                                                                   
  4705   109.1432    526(21)           423.2502           67.8736                                                                   
  4706   109.1632    437(20)           381.0515           67.8879                                                                   
  4707   109.1832    391(18)           340.8109           67.9023                                                                   
  4708   109.2032    358(17)           305.9098           67.9166                                                                   
  4709   109.2232    320(17)           277.5895           67.9310                                                                   
  4710   109.2432    298(16)           255.8935           67.9453                                                                   
  4711   109.2632    267(16)           240.4332           67.9596                                                                   
  4712   109.2832    286(15)           230.6802           67.9740                                                                   
  4713   109.3032    266(15)           226.1708           67.9882                                                                   
  4714   109.3232    250(15)           226.5749           68.0025                                                                   
  4715   109.3432    276(15)           231.7002           68.0168                                                                   
  4716   109.3632    274(16)           242.2979           68.0311                                                                   
  4717   109.3832    261(16)           256.6126           68.0453                                                                   
  4718   109.4032    312(17)           275.0938           68.0596                                                                   
  4719   109.4232    313(17)           296.7452           68.0738                                                                   
  4720   109.4432    365(18)           319.3362           68.0880                                                                   
  4721   109.4632    381(18)           339.2091           68.1022                                                                   
  4722   109.4832    394(19)           352.1999           68.1165                                                                   
  4723   109.5032    530(19)           352.6447           68.1306                                                                   
  4724   109.5232    390(19)           348.9391           68.1448                                                                   
  4725   109.5432    370(18)           342.0393           68.1590                                                                   
  4726   109.5632    371(18)           336.8994           68.1731                                                                   
  4727   109.5832    376(18)           337.4053           68.1873                                                                   
  4728   109.6032    355(19)           346.2688           68.2014                                                                   
  4729   109.6232    385(19)           365.5227           68.2155                                                                   
  4730   109.6432    407(20)           396.9597           68.2296                                                                   
  4731   109.6632    441(21)           442.2908           68.2437                                                                   
  4732   109.6832    526(22)           502.9081           68.2578                                                                   
  4733   109.7032    719(24)           579.4166           68.2719                                                                   
  4734   109.7232    677(26)           670.1086           68.2860                                                                   
  4735   109.7432    905(28)           768.8909           68.3000                                                                   
  4736   109.7632    1087(29)           862.6385           68.3140                                                                  
  4737   109.7832    1370(31)           932.4838           68.3281                                                                  
  4738   109.8032    1556(31)           962.0198           68.3421                                                                  
  4739   109.8232    1618(31)           948.3143           68.3561                                                                  
  4740   109.8432    1530(30)           902.3873           68.3701                                                                  
  4741   109.8632    1349(29)           837.7391           68.3840                                                                  
  4742   109.8832    1117(28)           761.7606           68.3980                                                                  
  4743   109.9032    914(26)           677.0760           68.4120                                                                   
  4744   109.9232    751(24)           593.5981           68.4259                                                                   
  4745   109.9432    618(23)           517.5591           68.4398                                                                   
  4746   109.9632    534(21)           454.3273           68.4537                                                                   
  4747   109.9832    442(20)           405.8959           68.4676                                                                   
  4748   110.0032    385(19)           372.1972           68.4815                                                                   
  4749   110.0232    333(19)           352.2908           68.4954                                                                   
  4750   110.0432    341(19)           345.1865           68.5092                                                                   
  4751   110.0632    346(19)           350.0567           68.5231                                                                   
  4752   110.0832    331(19)           366.2451           68.5369                                                                   
  4753   110.1032    357(20)           392.9816           68.5508                                                                   
  4754   110.1232    401(21)           428.6369           68.5646                                                                   
  4755   110.1432    503(22)           469.5997           68.5783                                                                   
  4756   110.1632    557(23)           509.0496           68.5921                                                                   
  4757   110.1832    718(23)           534.4620           68.6059                                                                   
  4758   110.2032    771(23)           543.6085           68.6196                                                                   
  4759   110.2232    843(23)           531.8869           68.6334                                                                   
  4760   110.2432    820(22)           504.5804           68.6471                                                                   
  4761   110.2632    758(22)           468.2258           68.6608                                                                   
  4762   110.2832    645(21)           426.3669           68.6745                                                                   
  4763   110.3032    535(20)           380.8853           68.6882                                                                   
  4764   110.3232    448(18)           334.8252           68.7019                                                                   
  4765   110.3432    359(17)           291.8579           68.7155                                                                   
  4766   110.3632    290(16)           254.5129           68.7292                                                                   
  4767   110.3832    241(15)           223.5310           68.7428                                                                   
  4768   110.4032    232(14)           198.5702           68.7564                                                                   
  4769   110.4232    180(13)           178.7570           68.7700                                                                   
  4770   110.4432    183(13)           163.1389           68.7836                                                                   
  4771   110.4632    155(12)           150.8018           68.7972                                                                   
  4772   110.4832    142(12)           140.9704           68.8107                                                                   
  4773   110.5032    138(12)           133.0345           68.8243                                                                   
  4774   110.5232    115(11)           126.5174           68.8378                                                                   
  4775   110.5432    115(11)           121.0782           68.8513                                                                   
  4776   110.5632    116(11)           116.4640           68.8648                                                                   
  4777   110.5832    119(11)           111.0400           68.8783                                                                   
  4778   110.6032    104(10)           107.6475           68.8917                                                                   
  4779   110.6232    104(10)           104.6796           68.9052                                                                   
  4780   110.6432    111(10)           102.0633           68.9186                                                                   
  4781   110.6632    89(10)            99.7419           68.9321                                                                    
  4782   110.6832    89(10)            97.6727           68.9455                                                                    
  4783   110.7032    87(10)            95.8179           68.9588                                                                    
  4784   110.7232    97(10)            94.1494           68.9722                                                                    
  4785   110.7432    88(10)            92.6413           68.9856                                                                    
  4786   110.7632    92(10)            91.2741           68.9989                                                                    
  4787   110.7832    70(9)            90.0300           69.0122                                                                     
  4788   110.8032    95(9)            88.8939           69.0256                                                                     
  4789   110.8232    89(9)            86.2347           69.0389                                                                     
  4790   110.8432    82(9)            85.3458           69.0521                                                                     
  4791   110.8632    77(9)            78.6356           69.0654                                                                     
  4792   110.8832    91(9)            78.0959           69.0787                                                                     
  4793   110.9032    75(9)            77.6027           69.0919                                                                     
  4794   110.9232    76(9)            77.1506           69.1051                                                                     
  4795   110.9432    81(9)            76.7357           69.1183                                                                     
  4796   110.9632    74(9)            76.3540           69.1315                                                                     
  4797   110.9832    84(9)            76.0019           69.1447                                                                     
  4798   111.0032    70(9)            75.6769           69.1578                                                                     
  4799   111.0232    75(9)            75.3761           69.1710                                                                     
  4800   111.0432    74(9)            75.0974           69.1841                                                                     
  4801   111.0632    85(9)            74.8387           69.1972                                                                     
  4802   111.0832    78(9)            74.5983           69.2103                                                                     
  4803   111.1032    74(9)            74.3745           69.2233                                                                     
  4804   111.1232    69(9)            74.1660           69.2364                                                                     
  4805   111.1432    68(9)            73.9715           69.2494                                                                     
  4806   111.1632    77(9)            73.7897           69.2624                                                                     
  4807   111.1832    64(9)            73.6197           69.2754                                                                     
  4808   111.2032    69(9)            73.4605           69.2884                                                                     
  4809   111.2232    83(9)            72.4965           69.3014                                                                     
  4810   111.2432    71(9)            72.3898           69.3143                                                                     
  4811   111.2632    64(8)            69.3273           69.3273                                                                     
  4812   111.2832    62(8)            69.3402           69.3402                                                                     
  4813   111.3032    66(8)            69.3531           69.3531                                                                     
  4814   111.3232    63(8)            69.3660           69.3660                                                                     
  4815   111.3432    74(8)            69.3788           69.3788                                                                     
  4816   111.3632    60(8)            69.3917           69.3917                                                                     
  4817   111.3832    69(8)            69.4045           69.4045                                                                     
  4818   111.4032    66(8)            69.4173           69.4173                                                                     
  4819   111.4232    56(8)            69.4301           69.4301                                                                     
  4820   111.4432    72(8)            69.4429           69.4429                                                                     
  4821   111.4632    77(8)            69.4556           69.4556                                                                     
  4822   111.4832    64(8)            69.4684           69.4684                                                                     
  4823   111.5032    68(8)            69.4811           69.4811                                                                     
  4824   111.5232    65(8)            69.4938           69.4938                                                                     
  4825   111.5432    65(8)            69.5065           69.5065                                                                     
  4826   111.5632    73(8)            69.5191           69.5191                                                                     
  4827   111.5832    64(8)            69.5318           69.5318                                                                     
  4828   111.6032    58(8)            69.5444           69.5444                                                                     
  4829   111.6232    65(8)            69.5570           69.5570                                                                     
  4830   111.6432    67(8)            69.5696           69.5696                                                                     
  4831   111.6632    53(8)            69.5822           69.5822                                                                     
  4832   111.6832    62(8)            69.5947           69.5947                                                                     
  4833   111.7032    67(8)            69.6073           69.6073                                                                     
  4834   111.7232    68(8)            69.6198           69.6198                                                                     
  4835   111.7432    66(8)            69.6323           69.6323                                                                     
  4836   111.7632    65(8)            69.6447           69.6447                                                                     
  4837   111.7832    59(8)            69.6572           69.6572                                                                     
  4838   111.8032    68(8)            69.6696           69.6696                                                                     
  4839   111.8232    60(8)            69.6820           69.6820                                                                     
  4840   111.8432    64(8)            69.6945           69.6945                                                                     
  4841   111.8632    64(8)            69.7068           69.7068                                                                     
  4842   111.8832    62(8)            69.7192           69.7192                                                                     
  4843   111.9032    67(8)            69.7315           69.7315                                                                     
  4844   111.9232    69(8)            69.7438           69.7438                                                                     
  4845   111.9432    64(8)            69.7561           69.7561                                                                     
  4846   111.9632    59(8)            69.7684           69.7684                                                                     
  4847   111.9832    61(8)            69.7807           69.7807                                                                     
  4848   112.0032    72(8)            69.7929           69.7929                                                                     
  4849   112.0232    67(8)            69.8051           69.8051                                                                     
  4850   112.0432    73(8)            69.8173           69.8173                                                                     
  4851   112.0632    68(8)            69.8295           69.8295                                                                     
  4852   112.0832    68(8)            69.8417           69.8417                                                                     
  4853   112.1032    57(8)            69.8538           69.8538                                                                     
  4854   112.1232    75(8)            69.8659           69.8659                                                                     
  4855   112.1432    57(8)            69.8780           69.8780                                                                     
  4856   112.1632    72(8)            69.8901           69.8901                                                                     
  4857   112.1832    65(8)            69.9022           69.9022                                                                     
  4858   112.2032    60(8)            69.9142           69.9142                                                                     
  4859   112.2232    69(8)            69.9262           69.9262                                                                     
  4860   112.2432    77(8)            69.9382           69.9382                                                                     
  4861   112.2632    61(8)            69.9502           69.9502                                                                     
  4862   112.2832    69(8)            69.9621           69.9621                                                                     
  4863   112.3032    51(8)            69.9740           69.9740                                                                     
  4864   112.3232    68(8)            69.9859           69.9859                                                                     
  4865   112.3432    67(8)            69.9978           69.9978                                                                     
  4866   112.3632    54(8)            70.0097           70.0097                                                                     
  4867   112.3832    59(8)            70.0215           70.0215                                                                     
  4868   112.4032    63(8)            70.0333           70.0333                                                                     
  4869   112.4232    76(8)            70.0452           70.0452                                                                     
  4870   112.4432    63(8)            70.0569           70.0569                                                                     
  4871   112.4632    67(8)            70.0687           70.0687                                                                     
  4872   112.4832    64(8)            70.0804           70.0804                                                                     
  4873   112.5032    62(8)            70.0921           70.0921                                                                     
  4874   112.5232    68(8)            70.1038           70.1038                                                                     
  4875   112.5432    65(8)            70.1155           70.1155                                                                     
  4876   112.5632    69(8)            70.1271           70.1271                                                                     
  4877   112.5832    66(8)            70.1387           70.1387                                                                     
  4878   112.6032    62(8)            70.1504           70.1504                                                                     
  4879   112.6232    73(8)            70.1619           70.1619                                                                     
  4880   112.6432    69(9)            73.0490           70.1735                                                                     
  4881   112.6632    64(9)            73.1742           70.1850                                                                     
  4882   112.6832    74(9)            73.3062           70.1965                                                                     
  4883   112.7032    76(9)            73.4455           70.2080                                                                     
  4884   112.7232    68(9)            73.5928           70.2195                                                                     
  4885   112.7432    81(9)            73.7489           70.2309                                                                     
  4886   112.7632    79(9)            73.9143           70.2423                                                                     
  4887   112.7832    73(9)            74.0900           70.2537                                                                     
  4888   112.8032    77(9)            74.2770           70.2651                                                                     
  4889   112.8232    74(9)            74.4761           70.2764                                                                     
  4890   112.8432    64(9)            74.6887           70.2878                                                                     
  4891   112.8632    57(9)            74.9160           70.2990                                                                     
  4892   112.8832    72(9)            75.1595           70.3103                                                                     
  4893   112.9032    67(9)            75.4208           70.3216                                                                     
  4894   112.9232    78(9)            75.7018           70.3328                                                                     
  4895   112.9432    82(9)            76.0046           70.3440                                                                     
  4896   112.9632    70(9)            76.3316           70.3552                                                                     
  4897   112.9832    65(9)            76.6856           70.3663                                                                     
  4898   113.0032    86(9)            77.0696           70.3775                                                                     
  4899   113.0232    88(9)            77.4875           70.3886                                                                     
  4900   113.0432    78(9)            77.9430           70.3997                                                                     
  4901   113.0632    75(9)            79.8604           70.4107                                                                     
  4902   113.0832    74(9)            80.4623           70.4218                                                                     
  4903   113.1032    80(9)            81.1224           70.4328                                                                     
  4904   113.1232    95(9)            81.8483           70.4437                                                                     
  4905   113.1432    81(9)            82.6493           70.4547                                                                     
  4906   113.1632    79(9)            83.5368           70.4657                                                                     
  4907   113.1832    89(9)            84.5232           70.4766                                                                     
  4908   113.2032    86(9)            85.6247           70.4874                                                                     
  4909   113.2232    84(9)            86.8594           70.4983                                                                     
  4910   113.2432    90(9)            88.2508           70.5091                                                                     
  4911   113.2632    81(9)            89.8258           70.5200                                                                     
  4912   113.2832    99(10)            91.6195           70.5307                                                                    
  4913   113.3032    90(10)            93.6763           70.5415                                                                    
  4914   113.3232    97(10)            96.0511           70.5522                                                                    
  4915   113.3432    117(10)            98.8202           70.5629                                                                   
  4916   113.3632    110(10)           102.0825           70.5736                                                                   
  4917   113.3832    106(10)           105.9799           70.5843                                                                   
  4918   113.4032    113(11)           110.7039           70.5949                                                                   
  4919   113.4232    138(11)           116.5283           70.6055                                                                   
  4920   113.4432    119(11)           123.8165           70.6161                                                                   
  4921   113.4632    117(12)           134.5906           70.6266                                                                   
  4922   113.4832    133(12)           146.4705           70.6372                                                                   
  4923   113.5032    151(13)           161.6555           70.6477                                                                   
  4924   113.5232    168(13)           180.9807           70.6582                                                                   
  4925   113.5432    168(14)           205.2586           70.6686                                                                   
  4926   113.5632    209(15)           235.1766           70.6790                                                                   
  4927   113.5832    246(16)           270.8933           70.6894                                                                   
  4928   113.6032    306(18)           311.4850           70.6998                                                                   
  4929   113.6232    348(19)           353.7765           70.7101                                                                   
  4930   113.6432    389(20)           391.3928           70.7204                                                                   
  4931   113.6632    425(20)           415.3197           70.7307                                                                   
  4932   113.6832    446(20)           418.0037           70.7410                                                                   
  4933   113.7032    455(20)           398.7935           70.7512                                                                   
  4934   113.7232    428(19)           364.4819           70.7614                                                                   
  4935   113.7432    365(18)           324.2388           70.7716                                                                   
  4936   113.7632    326(17)           285.0684           70.7818                                                                   
  4937   113.7832    293(16)           250.6157           70.7919                                                                   
  4938   113.8032    271(15)           222.1581           70.8020                                                                   
  4939   113.8232    215(14)           199.7535           70.8121                                                                   
  4940   113.8432    202(14)           182.8872           70.8221                                                                   
  4941   113.8632    198(13)           170.9209           70.8321                                                                   
  4942   113.8832    175(13)           163.2325           70.8421                                                                   
  4943   113.9032    190(13)           160.1306           70.8521                                                                   
  4944   113.9232    175(13)           159.7967           70.8620                                                                   
  4945   113.9432    176(13)           162.8652           70.8719                                                                   
  4946   113.9632    182(13)           169.3704           70.8818                                                                   
  4947   113.9832    172(13)           179.4225           70.8916                                                                   
  4948   114.0032    209(14)           193.0553           70.9014                                                                   
  4949   114.0232    208(14)           210.0081           70.9112                                                                   
  4950   114.0432    244(15)           229.2513           70.9210                                                                   
  4951   114.0632    256(16)           248.4538           70.9307                                                                   
  4952   114.0832    285(16)           263.6755           70.9404                                                                   
  4953   114.1032    299(16)           270.5124           70.9501                                                                   
  4954   114.1232    296(16)           266.6884           70.9597                                                                   
  4955   114.1432    307(16)           253.8951           70.9693                                                                   
  4956   114.1632    286(15)           236.5116           70.9789                                                                   
  4957   114.1832    271(15)           218.9369           70.9885                                                                   
  4958   114.2032    247(14)           204.1128           70.9980                                                                   
  4959   114.2232    243(14)           193.6537           71.0075                                                                   
  4960   114.2432    227(14)           188.3641           71.0170                                                                   
  4961   114.2632    193(14)           188.6908           71.0264                                                                   
  4962   114.2832    210(14)           194.8794           71.0358                                                                   
  4963   114.3032    221(14)           206.9590           71.0452                                                                   
  4964   114.3232    239(15)           224.4615           71.0546                                                                   
  4965   114.3432    267(16)           245.8603           71.0639                                                                   
  4966   114.3632    278(16)           267.5632           71.0732                                                                   
  4967   114.3832    335(17)           283.4704           71.0824                                                                   
  4968   114.4032    352(17)           286.9250           71.0917                                                                   
  4969   114.4232    342(17)           275.4568           71.1008                                                                   
  4970   114.4432    352(16)           252.9486           71.1100                                                                   
  4971   114.4632    294(15)           226.0695           71.1191                                                                   
  4972   114.4832    258(14)           199.9960           71.1283                                                                   
  4973   114.5032    218(13)           177.3370           71.1373                                                                   
  4974   114.5232    188(13)           158.8621           71.1464                                                                   
  4975   114.5432    156(12)           144.4711           71.1554                                                                   
  4976   114.5632    141(12)           133.6694           71.1644                                                                   
  4977   114.5832    121(11)           125.8841           71.1733                                                                   
  4978   114.6032    139(11)           120.5722           71.1823                                                                   
  4979   114.6232    123(11)           117.3256           71.1911                                                                   
  4980   114.6432    109(11)           115.8906           71.2000                                                                   
  4981   114.6632    118(11)           116.1809           71.2088                                                                   
  4982   114.6832    114(11)           118.2518           71.2176                                                                   
  4983   114.7032    119(11)           122.2581           71.2264                                                                   
  4984   114.7232    134(11)           125.5940           71.2351                                                                   
  4985   114.7432    136(12)           134.0411           71.2438                                                                   
  4986   114.7632    136(12)           144.5347           71.2525                                                                   
  4987   114.7832    168(13)           156.2899           71.2611                                                                   
  4988   114.8032    163(13)           167.4174           71.2697                                                                   
  4989   114.8232    199(13)           174.8110           71.2783                                                                   
  4990   114.8432    188(13)           175.4652           71.2868                                                                   
  4991   114.8632    182(13)           168.7721           71.2954                                                                   
  4992   114.8832    186(13)           157.0740           71.3038                                                                   
  4993   114.9032    158(12)           143.6563           71.3123                                                                   
  4994   114.9232    159(11)           130.8493           71.3207                                                                   
  4995   114.9432    139(11)           119.7573           71.3291                                                                   
  4996   114.9632    116(11)           110.6634           71.3374                                                                   
  4997   114.9832    109(10)           103.4587           71.3457                                                                   
  4998   115.0032    92(10)            97.8805           71.3540                                                                    
  4999   115.0232    97(10)            93.6096           71.3622                                                                    
  5000   115.0432    92(10)            90.3479           71.3705                                                                    
  5001   115.0632    88(9)            87.8347           71.3786                                                                     
  5002   115.0832    79(9)            85.8681           71.3868                                                                     
  5003   115.1032    75(9)            84.2956           71.3949                                                                     
  5004   115.1232    86(9)            83.0115           71.4030                                                                     
  5005   115.1432    79(9)            81.9412           71.4110                                                                     
  5006   115.1632    62(9)            79.6573           71.4190                                                                     
  5007   115.1832    68(9)            78.9289           71.4270                                                                     
  5008   115.2032    80(9)            78.3007           71.4350                                                                     
  5009   115.2232    78(9)            77.7547           71.4429                                                                     
  5010   115.2432    68(9)            77.2764           71.4507                                                                     
  5011   115.2632    84(9)            76.8553           71.4586                                                                     
  5012   115.2832    71(9)            76.4822           71.4664                                                                     
  5013   115.3032    82(9)            76.1500           71.4742                                                                     
  5014   115.3232    68(9)            75.8531           71.4819                                                                     
  5015   115.3432    64(9)            75.5863           71.4896                                                                     
  5016   115.3632    70(9)            73.8919           71.4973                                                                     
  5017   115.3832    72(9)            73.7325           71.5049                                                                     
  5018   115.4032    63(9)            73.5897           71.5125                                                                     
  5019   115.4232    75(9)            73.4616           71.5201                                                                     
  5020   115.4432    74(9)            73.3462           71.5276                                                                     
  5021   115.4632    80(9)            73.2420           71.5351                                                                     
  5022   115.4832    76(9)            73.1476           71.5425                                                                     
  5023   115.5032    73(9)            73.0620           71.5500                                                                     
  5024   115.5232    69(9)            72.9842           71.5573                                                                     
  5025   115.5432    60(9)            72.9133           71.5647                                                                     
  5026   115.5632    67(9)            72.8486           71.5720                                                                     
  5027   115.5832    71(9)            72.7895           71.5793                                                                     
  5028   115.6032    61(9)            72.7353           71.5865                                                                     
  5029   115.6232    64(9)            72.6856           71.5937                                                                     
  5030   115.6432    75(9)            72.6401           71.6009                                                                     
  5031   115.6632    64(9)            72.5981           71.6080                                                                     
  5032   115.6832    77(9)            72.5596           71.6151                                                                     
  5033   115.7032    68(9)            72.5240           71.6222                                                                     
  5034   115.7232    62(9)            72.4913           71.6292                                                                     
  5035   115.7432    72(9)            72.4611           71.6362                                                                     
  5036   115.7632    69(9)            72.4332           71.6432                                                                     
  5037   115.7832    70(9)            72.4074           71.6501                                                                     
  5038   115.8032    70(8)            71.6570           71.6570                                                                     
  5039   115.8232    71(8)            71.6638           71.6638                                                                     
  5040   115.8432    75(8)            71.6706           71.6706                                                                     
  5041   115.8632    64(8)            71.6774           71.6774                                                                     
  5042   115.8832    70(8)            71.6841           71.6841                                                                     
  5043   115.9032    77(8)            71.6908           71.6908                                                                     
  5044   115.9232    62(8)            71.6974           71.6974                                                                     
  5045   115.9432    68(8)            71.7040           71.7040                                                                     
  5046   115.9632    69(8)            71.7106           71.7106                                                                     
  5047   115.9832    76(8)            71.7172           71.7172                                                                     
  5048   116.0032    67(8)            71.7237           71.7237                                                                     
  5049   116.0232    74(8)            71.7301           71.7301                                                                     
  5050   116.0432    65(8)            71.7366           71.7366                                                                     
  5051   116.0632    66(8)            71.7430           71.7430                                                                     
  5052   116.0832    79(8)            71.7493           71.7493                                                                     
  5053   116.1032    67(8)            71.7556           71.7556                                                                     
  5054   116.1232    72(8)            71.7619           71.7619                                                                     
  5055   116.1432    74(8)            71.7681           71.7681                                                                     
  5056   116.1632    62(8)            71.7743           71.7743                                                                     
  5057   116.1832    62(8)            71.7805           71.7805                                                                     
  5058   116.2032    65(8)            71.7866           71.7866                                                                     
  5059   116.2232    59(8)            71.7927           71.7927                                                                     
  5060   116.2432    75(8)            71.7987           71.7987                                                                     
  5061   116.2632    71(8)            71.8047           71.8047                                                                     
  5062   116.2832    68(8)            71.8107           71.8107                                                                     
  5063   116.3032    74(8)            71.8166           71.8166                                                                     
  5064   116.3232    76(8)            71.8225           71.8225                                                                     
  5065   116.3432    69(8)            71.8283           71.8283                                                                     
  5066   116.3632    73(8)            71.8341           71.8341                                                                     
  5067   116.3832    67(8)            71.8399           71.8399                                                                     
  5068   116.4032    69(8)            71.8456           71.8456                                                                     
  5069   116.4232    74(8)            71.8513           71.8513                                                                     
  5070   116.4432    82(8)            71.8569           71.8569                                                                     
  5071   116.4632    69(8)            71.8625           71.8625                                                                     
  5072   116.4832    78(8)            71.8681           71.8681                                                                     
  5073   116.5032    60(8)            71.8736           71.8736                                                                     
  5074   116.5232    74(8)            71.8791           71.8791                                                                     
  5075   116.5432    94(8)            71.8845           71.8845                                                                     
  5076   116.5632    72(9)            75.7102           71.8899                                                                     
  5077   116.5832    82(9)            75.8444           71.8953                                                                     
  5078   116.6032    71(9)            75.9852           71.9006                                                                     
  5079   116.6232    67(9)            76.1329           71.9059                                                                     
  5080   116.6432    70(9)            76.2882           71.9111                                                                     
  5081   116.6632    64(9)            76.4516           71.9163                                                                     
  5082   116.6832    82(9)            76.6236           71.9215                                                                     
  5083   116.7032    72(9)            76.8049           71.9266                                                                     
  5084   116.7232    85(9)            76.9962           71.9316                                                                     
  5085   116.7432    81(9)            77.1983           71.9367                                                                     
  5086   116.7632    75(9)            77.4120           71.9416                                                                     
  5087   116.7832    73(9)            77.6382           71.9466                                                                     
  5088   116.8032    75(9)            77.8782           71.9515                                                                     
  5089   116.8232    76(9)            78.1327           71.9563                                                                     
  5090   116.8432    78(9)            78.4034           71.9612                                                                     
  5091   116.8632    87(9)            78.6913           71.9659                                                                     
  5092   116.8832    76(9)            78.9983           71.9707                                                                     
  5093   116.9032    89(9)            79.3258           71.9753                                                                     
  5094   116.9232    83(9)            79.6760           71.9800                                                                     
  5095   116.9432    78(9)            80.0507           71.9846                                                                     
  5096   116.9632    75(9)            80.4526           71.9891                                                                     
  5097   116.9832    82(9)            80.8845           71.9937                                                                     
  5098   117.0032    88(9)            81.3490           71.9981                                                                     
  5099   117.0232    93(9)            83.7580           72.0026                                                                     
  5100   117.0432    82(9)            84.3630           72.0070                                                                     
  5101   117.0632    89(9)            85.0161           72.0113                                                                     
  5102   117.0832    93(9)            85.7221           72.0156                                                                     
  5103   117.1032    77(9)            86.4875           72.0199                                                                     
  5104   117.1232    95(9)            87.3186           72.0241                                                                     
  5105   117.1432    100(9)            88.2236           72.0282                                                                    
  5106   117.1632    96(9)            89.2119           72.0323                                                                     
  5107   117.1832    90(10)            90.2935           72.0364                                                                    
  5108   117.2032    103(10)            91.4812           72.0405                                                                   
  5109   117.2232    89(10)            92.7887           72.0445                                                                    
  5110   117.2432    105(10)            94.2337           72.0484                                                                   
  5111   117.2632    86(10)            95.8350           72.0523                                                                    
  5112   117.2832    92(10)            97.6167           72.0562                                                                    
  5113   117.3032    97(10)            99.6081           72.0600                                                                    
  5114   117.3232    92(10)           101.8421           72.0637                                                                    
  5115   117.3432    102(10)           104.3626           72.0675                                                                   
  5116   117.3632    105(10)           107.2205           72.0711                                                                   
  5117   117.3832    102(11)           110.4848           72.0748                                                                   
  5118   117.4032    107(11)           114.2391           72.0784                                                                   
  5119   117.4232    112(11)           118.5985           72.0819                                                                   
  5120   117.4432    108(11)           123.7072           72.0854                                                                   
  5121   117.4632    112(11)           129.7610           72.0888                                                                   
  5122   117.4832    121(12)           137.0163           72.0922                                                                   
  5123   117.5032    122(12)           145.7936           72.0956                                                                   
  5124   117.5232    136(13)           156.5099           72.0989                                                                   
  5125   117.5432    151(13)           169.6577           72.1022                                                                   
  5126   117.5632    144(14)           185.8367           72.1054                                                                   
  5127   117.5832    177(14)           205.6979           72.1086                                                                   
  5128   117.6032    185(15)           229.9581           72.1117                                                                   
  5129   117.6232    201(16)           259.2653           72.1148                                                                   
  5130   117.6432    235(17)           294.1147           72.1178                                                                   
  5131   117.6632    261(18)           338.4882           72.1208                                                                   
  5132   117.6832    309(20)           383.6967           72.1237                                                                   
  5133   117.7032    369(21)           430.9728           72.1266                                                                   
  5134   117.7232    387(22)           475.2474           72.1295                                                                   
  5135   117.7432    397(23)           509.2123           72.1323                                                                   
  5136   117.7632    455(23)           525.2722           72.1350                                                                   
  5137   117.7832    431(23)           519.3848           72.1377                                                                   
  5138   117.8032    407(22)           493.5293           72.1404                                                                   
  5139   117.8232    393(21)           454.4999           72.1430                                                                   
  5140   117.8432    358(20)           410.1002           72.1456                                                                   
  5141   117.8632    310(19)           366.3910           72.1481                                                                   
  5142   117.8832    317(18)           326.8370           72.1505                                                                   
  5143   117.9032    273(17)           292.9886           72.1529                                                                   
  5144   117.9232    242(16)           265.1625           72.1553                                                                   
  5145   117.9432    220(16)           243.1410           72.1576                                                                   
  5146   117.9632    210(15)           226.4457           72.1599                                                                   
  5147   117.9832    206(15)           214.5682           72.1621                                                                   
  5148   118.0032    204(14)           207.0725           72.1643                                                                   
  5149   118.0232    226(14)           203.6146           72.1664                                                                   
  5150   118.0432    213(14)           203.9823           72.1685                                                                   
  5151   118.0632    217(14)           208.0756           72.1705                                                                   
  5152   118.0832    195(15)           215.8723           72.1725                                                                   
  5153   118.1032    214(15)           227.3717           72.1744                                                                   
  5154   118.1232    210(16)           244.3782           72.1763                                                                   
  5155   118.1432    248(16)           262.6375           72.1781                                                                   
  5156   118.1632    269(17)           287.1913           72.1799                                                                   
  5157   118.1832    268(18)           307.4099           72.1816                                                                   
  5158   118.2032    312(18)           324.0638           72.1833                                                                   
  5159   118.2232    333(18)           333.2522           72.1849                                                                   
  5160   118.2432    309(18)           332.2465           72.1865                                                                   
  5161   118.2632    337(18)           321.0500           72.1880                                                                   
  5162   118.2832    310(17)           302.3823           72.1895                                                                   
  5163   118.3032    296(17)           280.0613           72.1909                                                                   
  5164   118.3232    264(16)           257.3933           72.1923                                                                   
  5165   118.3432    251(15)           236.4405           72.1937                                                                   
  5166   118.3632    250(15)           218.2143           72.1949                                                                   
  5167   118.3832    237(14)           202.9946           72.1962                                                                   
  5168   118.4032    257(14)           190.7124           72.1973                                                                   
  5169   118.4232    208(13)           181.1091           72.1985                                                                   
  5170   118.4432    214(13)           173.8867           72.1995                                                                   
  5171   118.4632    199(13)           168.7396           72.2005                                                                   
  5172   118.4832    210(13)           165.4007           72.2015                                                                   
  5173   118.5032    199(13)           163.6588           72.2024                                                                   
  5174   118.5232    224(13)           163.3612           72.2033                                                                   
  5175   118.5432    201(13)           164.4257           72.2041                                                                   
  5176   118.5632    193(13)           166.8430           72.2049                                                                   
  5177   118.5832    217(13)           170.6791           72.2056                                                                   
  5178   118.6032    221(13)           176.0871           72.2062                                                                   
  5179   118.6232    193(14)           183.3017           72.2068                                                                   
  5180   118.6432    211(14)           194.8214           72.2074                                                                   
  5181   118.6632    189(14)           206.8356           72.2079                                                                   
  5182   118.6832    231(15)           221.9502           72.2083                                                                   
  5183   118.7032    231(16)           240.7870           72.2087                                                                   
  5184   118.7232    263(16)           263.9962           72.2091                                                                   
  5185   118.7432    250(17)           292.2576           72.2094                                                                   
  5186   118.7632    281(18)           326.0992           72.2096                                                                   
  5187   118.7832    311(19)           365.7549           72.2098                                                                   
  5188   118.8032    356(20)           410.7565           72.2099                                                                   
  5189   118.8232    412(21)           459.2542           72.2100                                                                   
  5190   118.8432    470(23)           507.3980           72.2100                                                                   
  5191   118.8632    559(23)           548.8740           72.2100                                                                   
  5192   118.8832    568(24)           576.1456           72.2099                                                                   
  5193   118.9032    587(24)           583.3682           72.2097                                                                   
  5194   118.9232    579(24)           569.7614           72.2095                                                                   
  5195   118.9432    583(23)           540.1604           72.2093                                                                   
  5196   118.9632    512(22)           502.2585           72.2090                                                                   
  5197   118.9832    470(21)           459.4934           72.2086                                                                   
  5198   119.0032    421(21)           424.5204           72.2082                                                                   
  5199   119.0232    413(20)           396.3346           72.2077                                                                   
  5200   119.0432    371(19)           376.4372           72.2072                                                                   
  5201   119.0632    360(19)           365.5874           72.2066                                                                   
  5202   119.0832    312(19)           364.3207           72.2060                                                                   
  5203   119.1032    357(19)           373.1530           72.2053                                                                   
  5204   119.1232    360(20)           392.6580           72.2046                                                                   
  5205   119.1432    342(21)           423.4254           72.2038                                                                   
  5206   119.1632    373(22)           465.8559           72.2029                                                                   
  5207   119.1832    411(23)           519.6208           72.2020                                                                   
  5208   119.2032    453(24)           582.8932           72.2010                                                                   
  5209   119.2232    537(26)           650.8491           72.2000                                                                   
  5210   119.2432    566(27)           714.7422           72.1989                                                                   
  5211   119.2632    656(28)           762.7497           72.1978                                                                   
  5212   119.2832    727(28)           784.9711           72.1966                                                                   
  5213   119.3032    740(28)           779.1399           72.1954                                                                   
  5214   119.3232    753(27)           751.1245           72.1940                                                                   
  5215   119.3432    710(27)           709.3074           72.1927                                                                   
  5216   119.3632    634(26)           659.6206           72.1913                                                                   
  5217   119.3832    561(25)           605.0500           72.1898                                                                   
  5218   119.4032    545(23)           548.0066           72.1883                                                                   
  5219   119.4232    476(22)           491.4879           72.1867                                                                   
  5220   119.4432    424(21)           438.7542           72.1850                                                                   
  5221   119.4632    383(20)           390.3348           72.1833                                                                   
  5222   119.4832    340(19)           351.1618           72.1815                                                                   
  5223   119.5032    328(18)           319.5917           72.1797                                                                   
  5224   119.5232    273(17)           295.3061           72.1778                                                                   
  5225   119.5432    250(17)           277.8587           72.1759                                                                   
  5226   119.5632    238(16)           266.8093           72.1739                                                                   
  5227   119.5832    249(16)           261.8674           72.1719                                                                   
  5228   119.6032    238(16)           262.8631           72.1698                                                                   
  5229   119.6232    219(16)           269.7052           72.1676                                                                   
  5230   119.6432    236(17)           282.2490           72.1654                                                                   
  5231   119.6632    257(17)           300.0558           72.1631                                                                   
  5232   119.6832    264(18)           321.9214           72.1607                                                                   
  5233   119.7032    270(19)           345.2843           72.1583                                                                   
  5234   119.7232    300(19)           365.6517           72.1559                                                                   
  5235   119.7432    309(19)           377.2120           72.1533                                                                   
  5236   119.7632    333(19)           375.1955           72.1508                                                                   
  5237   119.7832    371(19)           358.8907           72.1481                                                                   
  5238   119.8032    323(18)           332.0647           72.1454                                                                   
  5239   119.8232    314(17)           300.3952           72.1427                                                                   
  5240   119.8432    276(16)           268.5829           72.1398                                                                   
  5241   119.8632    248(15)           239.4286           72.1370                                                                   
  5242   119.8832    216(15)           214.0767           72.1340                                                                   
  5243   119.9032    182(14)           192.7504           72.1310                                                                   
  5244   119.9232    174(13)           175.1599           72.1280                                                                   
  5245   119.9432    153(13)           160.8445           72.1248                                                                   
_pd_proc_number_of_points   5245
 
loop_                          
      _refln_index_h           
      _refln_index_k           
      _refln_index_l           
      _refln_mult              
      _pd_refln_phase_id       
      _refln_observed_status   
      _refln_F_squared_meas    
      _refln_F_squared_calc    
      _refln_phase_calc        
      _refln_d_spacing         
   0   0   1  2  1  o      30301.1582    31490.2871    9.80   4.03170
   0   0   1  2  1  o          0.0000    31490.2871    9.80   4.03170
   1   0   0  4  1  o      28440.9375    30168.7969   16.41   3.99236
   1   0   0  4  1  o          0.0000    30168.7969   16.41   3.99236
   1   0   1  8  1  o     165605.7340   161712.9530   10.09   2.83683
   1   0   1  8  1  o          0.0000   161712.9530   10.09   2.83683
   1   1   0  4  1  o     159307.0310   161504.4530   10.81   2.82303
   1   1   0  4  1  o          0.0000   161504.4530   10.81   2.82303
   1   1   1  8  1  o     117760.3830   114863.7890   12.16   2.31249
   1   1   1  8  1  o          0.0000   114863.7890   12.16   2.31249
   0   0   2  2  1  o     282002.5000   268467.5940    9.33   2.01585
   0   0   2  2  1  o          0.0000   268467.5940    9.33   2.01585
   2   0   0  4  1  o     271221.9690   273063.8130    8.32   1.99618
   2   0   0  4  1  o          0.0000   273063.8130    8.32   1.99618
   1   0   2  8  1  o      26798.1621    23516.7832   25.43   1.79947
   1   0   2  8  1  o          0.0000    23516.7832   25.43   1.79947
   2   0   1  8  1  o      24981.8418    23136.4629   15.28   1.78892
   2   1   0  8  1  o      22607.6855    22607.4531   18.54   1.78544
   2   0   1  8  1  o          0.0000    23136.4629   15.28   1.78892
   2   1   0  8  1  o          0.0000    22607.4531   18.54   1.78544
   1   1   2  8  1  o     118691.8050   117908.0630    5.32   1.64053
   1   1   2  8  1  o          0.0000   117908.0630    5.32   1.64053
   2   1   1 16  1  o     112165.1950   113311.5310   11.85   1.63252
   2   1   1 16  1  o          0.0000   113311.5310   11.85   1.63252
   2   0   2  8  1  o     159332.3750   173006.8130   10.69   1.41842
   2   0   2  8  1  o          0.0000   173006.8130   10.69   1.41842
   2   2   0  4  1  o     167972.8130   176012.5160   10.17   1.41151
   2   2   0  4  1  o          0.0000   176012.5160   10.17   1.41151
   0   0   3  2  1  o      22224.8398    21889.1484   13.38   1.34390
   0   0   3  2  1  o          0.0000    21889.1484   13.38   1.34390
   2   1   2 16  1  o      20112.3965    19550.2090   25.87   1.33657
   2   1   2 16  1  o          0.0000    19550.2090   25.87   1.33657
   2   2   1  8  1  o      19337.9121    19254.5254   17.74   1.33223
   3   0   0  4  1  o      18437.3301    18929.1426   19.80   1.33079
   2   2   1  8  1  o          0.0000    19254.5254   17.74   1.33223
   3   0   0  4  1  o          0.0000    18929.1426   19.80   1.33079
   1   0   3  8  1  o      82247.7422    87468.3281   11.62   1.27368
   1   0   3  8  1  o          0.0000    87468.3281   11.62   1.27368
   3   0   1  8  1  o      82974.7344    87294.2109   13.33   1.26372
   3   1   0  8  1  o      80173.5781    87272.9531   14.18   1.26250
   3   0   1  8  1  o          0.0000    87294.2109   13.33   1.26372
   3   1   0  8  1  o          0.0000    87272.9531   14.18   1.26250
   1   1   3  8  1  o      46136.4219    46475.9023   22.26   1.21342
   1   1   3  8  1  o          0.0000    46475.9023   22.26   1.21342
   3   1   1 16  1  o      43241.6445    46875.2461   15.81   1.20481
   3   1   1 16  1  o          0.0000    46875.2461   15.81   1.20481
   2   2   2  8  1  o     127092.2110   127521.7110   11.90   1.15624
   2   2   2  8  1  o          0.0000   127521.7110   11.90   1.15624
   2   0   3  8  1  o      15434.3857    18333.2148   16.20   1.11480
   2   0   3  8  1  o          0.0000    18333.2148   16.20   1.11480
   3   0   2  8  1  o      16385.4375    16683.0410   26.50   1.11061
   3   0   2  8  1  o          0.0000    16683.0410   26.50   1.11061
   3   2   0  8  1  o      16181.9453    16207.2412   20.91   1.10728
   3   2   0  8  1  o          0.0000    16207.2412   20.91   1.10728
   2   1   3 16  1  o      70826.2500    70729.8438   12.89   1.07373
   2   1   3 16  1  o          0.0000    70729.8438   12.89   1.07373
   3   1   2 16  1  o      70859.0938    72570.2188    9.59   1.06998
   3   2   1 16  1  o      69134.4531    70693.6328   14.61   1.06774
   3   1   2 16  1  o          0.0000    72570.2188    9.59   1.06998
   3   2   1 16  1  o          0.0000    70693.6328   14.61   1.06774
   0   0   4  2  1  o     134474.7810    95794.0781   12.99   1.00793
   0   0   4  2  1  o          0.0000    95794.0781   12.99   1.00793
   4   0   0  4  1  o      97730.5469   102248.6480   12.85   0.99809
   4   0   0  4  1  o          0.0000   102248.6480   12.85   0.99809
   1   0   4  8  1  o      11548.2432    15390.9912   32.00   0.97726
   1   0   4  8  1  o          0.0000    15390.9912   32.00   0.97726
   2   2   3  8  1  o      16240.6846    15484.2568   18.33   0.97331
   2   2   3  8  1  o          0.0000    15484.2568   18.33   0.97331
   3   2   2 16  1  o      14687.9160    14223.3984   27.47   0.97051
   4   0   1  8  1  o      14134.9199    14019.2637   20.95   0.96884
   4   1   0  8  1  o      13865.7959    13837.2910   22.11   0.96829
   3   2   2 16  1  o          0.0000    14223.3984   27.47   0.97051
   4   0   1  8  1  o          0.0000    14019.2637   20.95   0.96884
   4   1   0  8  1  o          0.0000    13837.2910   22.11   0.96829
   1   1   4  8  1  o      75591.9766    64327.0078    5.69   0.94924
   1   1   4  8  1  o          0.0000    64327.0078    5.69   0.94924
   3   0   3  8  1  o      64645.3398    58910.3867   14.03   0.94561
   3   0   3  8  1  o          0.0000    58910.3867   14.03   0.94561
   4   1   1 16  1  o      67993.7109    58936.8359   15.77   0.94152
   3   3   0  4  1  o      68402.9531    58940.2969   16.63   0.94101
   4   1   1 16  1  o          0.0000    58936.8359   15.77   0.94152
   3   3   0  4  1  o          0.0000    58940.2969   16.63   0.94101
   3   1   3 16  1  o      29900.3125    29018.9551   24.31   0.92015
   3   1   3 16  1  o          0.0000    29018.9551   24.31   0.92015
   3   3   1  8  1  o      32325.2598    29214.0859   18.23   0.91638
   3   3   1  8  1  o          0.0000    29214.0859   18.23   0.91638
   2   0   4  8  1  o      72412.9922    78835.5859   13.87   0.89974
   2   0   4  8  1  o          0.0000    78835.5859   13.87   0.89974
   4   0   2  8  1  o      81894.4453    82751.1406   13.93   0.89446
   4   2   0  8  1  o      79922.6328    84129.1094   13.90   0.89272
   4   0   2  8  1  o          0.0000    82751.1406   13.93   0.89446
   4   2   0  8  1  o          0.0000    84129.1094   13.90   0.89272
 
# The following lines are used to test the character set of files sent by     
# network email or other means. They are not part of the CIF data set.        
# abcdefghijklmnopqrstuvwxyzABCDEFGHIJKLMNOPQRSTUVWXYZ0123456789              
# !@#$%^&*()_+{}:"~<>?|\-=[];'`,./ 



_pd_proc_ls_prof_R_factor
11.80
_pd_meas_2theta_range_max
120.00000
_pd_proc_ls_background_function
'6-coefficients polynomial function'
_pd_proc_2theta_range_max
120.000
_publ_contact_author_fax
+381112185263
_pd_proc_ls_prof_wR_expected
6.3261
_cell_volume
64.37(2)
_pd_proc_ls_prof_chi2
6.34
_computing_structure_refinement
FULLPROF
_chemical_name_systematic
;
 Barium titanate
;
_refine_ls_R_I_factor
8.65
_publ_contact_author_phone
+381112636994
_diffrn_source
'X-ray tube'
_cell_length_a
3.9946(6)
_cell_length_b
3.9946(6)
_cell_length_c
4.0338(1)
_publ_section_title
;The effect of Sn for Ti substitution on the average and local crystal 
structure of BaTi1-xSnxO3 (0<x<0.20) 
;
_cell_measurement_temperature
295
_chemical_formula_structural
BaTiO3
_pd_proc_2theta_range_inc
0.020004
_symmetry_cell_setting
Tetragonal
_pd_proc_ls_profile_function
'pseudo voigt'
_cell_angle_gamma
90.00000
_pd_meas_2theta_range_min
20.2000
_pd_proc_wavelength
1.540560
_database_code_depnum_ccdc_archive
'CCDC 995533'
_diffrn_source_target
Cu
_symmetry_space_group_name_Hall
'P 4 -2'
_chemical_name_common
'Barium titanate stannate '
_publ_contact_author_name
'Ljiljana Veselinovic'
_diffrn_radiation_type
'Cu K\a'
_refine_ls_number_restraints
0
_diffrn_ambient_temperature
295
_pd_proc_2theta_range_min
20.000
_pd_meas_2theta_range_inc
0.020004
_refine_ls_number_parameters
10
_refine_ls_number_reflns
92
_cell_angle_beta
90.00000
_symmetry_space_group_name_H-M
'P 4 M M'
_pd_proc_ls_prof_wR_factor
16.6
_cell_angle_alpha
90.00000
_pd_proc_ls_pref_orient_corr
no
_publ_contact_author_email
ljiljana.veselinovic@itn.sanu.ac.rs
_iucr_compatibility_tag
ACTA95
_publ_contact_author_address
;Institute of Technical Sciences
of the Serbian Academy of Sciences and Arts
Knez Mihailova 35
11000 Belgrade, Serbia
;
_pd_meas_number_of_points
5245
_publ_requested_journal
'Journal of Applied Crystallography'
loop_
_publ_author_name
_publ_author_address

;Veselinovic Ljiljana
;

;Institute of Technical Sciences
of the Serbian Academy of Sciences and Arts
Knez Mihailova 35
11000 Belgrade, Serbia
;

;Mitric Miodrag
;

;The Vinca Institute of Nuclear Sciences, University of Belgrade
11000 Belgrade, Serbia

;

;Mancic Lidija
;

;Institute of Technical Sciences
of the Serbian Academy of Sciences and Arts
Knez Mihailova 35
11000 Belgrade, Serbia

;

;Vukomanovic Marija
;

;Jozef Stefan Institute
Jamova 39
1000 Ljubljana, Slovenia

;

;Hadzic Branka
;

;Institute of Physics, University of Belgrade
Pregrevica 118 
11080 Belgrade, Serbia

;

;Markovic Smilja
;

;Institute of Technical Sciences
of the Serbian Academy of Sciences and Arts
Knez Mihailova 35
11000 Belgrade, Serbia

;

;Uskokovic Dragan
;

;Institute of Technical Sciences
of the Serbian Academy of Sciences and Arts
Knez Mihailova 35
11000 Belgrade, Serbia
;

loop_
_atom_type_symbol
_atom_type_scat_cromer_mann_a1
_atom_type_scat_cromer_mann_b1
_atom_type_scat_cromer_mann_a2
_atom_type_scat_cromer_mann_b2
_atom_type_scat_cromer_mann_a3
_atom_type_scat_cromer_mann_b3
_atom_type_scat_cromer_mann_a4
_atom_type_scat_cromer_mann_b4
_atom_type_scat_cromer_mann_c
_atom_type_scat_dispersion_real
_atom_type_scat_dispersion_imag
_atom_type_scat_source
ba+2 20.18070 3.21367 19.11360 0.28331 10.90540 20.05580 0.77634 51.74600 3.02902 -1.33400 8.46000 International_Tables_for_Crystallography_Vol.C(1991)_Tables_6.1.1.4_and_6.1.1.5
ti+4 19.51140 0.17885 8.23473 6.67018 2.01341 -0.29263 1.52080 12.94640 -13.28000 0.18900 1.80700 International_Tables_for_Crystallography_Vol.C(1991)_Tables_6.1.1.4_and_6.1.1.5
o-2 4.75800 7.83100 3.63700 30.05000 0.00000 0.00000 0.00000 0.00000 1.59400 0.04700 0.03200 International_Tables_for_Crystallography_Vol.C(1991)_Tables_6.1.1.4_and_6.1.1.5

loop_
_symmetry_equiv_pos_as_xyz
x,y,z
-y,x,z
-x,-y,z
y,-x,z
-x,y,z
y,x,z
x,-y,z
-y,-x,z

loop_
_atom_site_label
_atom_site_fract_x
_atom_site_fract_y
_atom_site_fract_z
_atom_site_u_iso_or_equiv
_atom_site_occupancy
_atom_site_adp_type
_atom_site_type_symbol
Ba 0.00000 0.00000 0.00000 0.0045(4) 1.00000 Uiso Ba+2
Ti 0.50000 0.50000 0.488(4) 0.0022(6) 1.00000 Uiso Ti+4
O1 0.50000 0.50000 -0.01(3) 0.00424 1.00000 Uiso O-2
O2 0.50000 0.00000 0.529(6) 0.00424 1.00000 Uiso O-2

