data_I
# 11. POWDER PROFILE

# Each Rietveld submission must be accompanied by a listing of the powder
# profile.  These should be sent as separate files, each consisting of
# one data block containing a single powder profile.  The _pd_block_id 
# is used to associate each refinement with its corresponding powder profile
# since it must match the field _pd_block_diffractogram_id in section 8.
# The listing of the profile will be submitted to the International Centre
# for Diffraction Data for inclusion in the Powder Diffraction File. 
# The listing will not be included in the printed paper, but a figure
# showing the measured and calculated profiles should be submitted.

_pd_block_id      LaInO3_file

loop_
      _pd_proc_point_id                           
      _pd_proc_2theta_corrected            
      _pd_proc_intensity_net                     
      _pd_calc_intensity_net                                        
1	10	64	50.636
2	10.02	71	50.5633
3	10.04	55	50.4907
4	10.06	50	50.4182
5	10.08	61	50.3458
6	10.1	56	50.2734
7	10.12	62	50.2012
8	10.14	72	50.129
9	10.16	61	50.057
10	10.18	70	49.985
11	10.2	74	49.9131
12	10.22	59	49.8414
13	10.24	62	49.7697
14	10.26	67	49.6981
15	10.28	67	49.6266
16	10.3	51	49.5552
17	10.32	52	49.4838
18	10.34	60	49.4126
19	10.36	55	49.3415
20	10.38	60	49.2704
21	10.4	61	49.1994
22	10.42	69	49.1286
23	10.44	54	49.0578
24	10.46	62	48.9871
25	10.48	63	48.9165
26	10.5	44	48.846
27	10.52	51	48.7756
28	10.54	53	48.7053
29	10.56	57	48.635
30	10.58	55	48.5649
31	10.6	57	48.4948
32	10.62	59	48.4249
33	10.64	54	48.355
34	10.66	71	48.2852
35	10.68	59	48.2155
36	10.7	59	48.1459
37	10.72	54	48.0764
38	10.74	58	48.007
39	10.76	61	47.9376
40	10.78	54	47.8684
41	10.8	51	47.7992
42	10.82	49	47.7302
43	10.84	51	47.6612
44	10.86	53	47.5923
45	10.88	57	47.5235
46	10.9	53	47.4548
47	10.92	71	47.3862
48	10.94	53	47.3176
49	10.96	50	47.2492
50	10.98	61	47.1808
51	11	59	47.1125
52	11.02	51	47.0444
53	11.04	55	46.9763
54	11.06	54	46.9083
55	11.08	47	46.8404
56	11.1	43	46.7725
57	11.12	52	46.7048
58	11.14	51	46.6371
59	11.16	51	46.5696
60	11.18	58	46.5021
61	11.2	54	46.4347
62	11.22	55	46.3674
63	11.24	47	46.3002
64	11.26	53	46.2331
65	11.28	56	46.166
66	11.3	53	46.0991
67	11.32	54	46.0322
68	11.34	51	45.9655
69	11.36	53	45.8988
70	11.38	59	45.8322
71	11.4	53	45.7656
72	11.42	52	45.6992
73	11.44	58	45.6329
74	11.46	49	45.5666
75	11.48	53	45.5005
76	11.5	51	45.4344
77	11.52	51	45.3684
78	11.54	63	45.3025
79	11.56	54	45.2366
80	11.58	52	45.1709
81	11.6	54	45.1053
82	11.62	51	45.0397
83	11.64	47	44.9742
84	11.66	53	44.9088
85	11.68	57	44.8435
86	11.7	48	44.7783
87	11.72	53	44.7132
88	11.74	46	44.6481
89	11.76	54	44.5832
90	11.78	46	44.5183
91	11.8	51	44.4535
92	11.82	54	44.3888
93	11.84	52	44.3242
94	11.86	50	44.2596
95	11.88	53	44.1952
96	11.9	50	44.1308
97	11.92	51	44.0665
98	11.94	47	44.0023
99	11.96	48	43.9382
100	11.98	53	43.8742
101	12	49	43.8102
102	12.02	46	43.7464
103	12.04	52	43.6826
104	12.06	51	43.6189
105	12.08	46	43.5553
106	12.1	50	43.4918
107	12.12	44	43.4283
108	12.14	47	43.365
109	12.16	46	43.3017
110	12.18	45	43.2385
111	12.2	49	43.1754
112	12.22	44	43.1124
113	12.24	45	43.0495
114	12.26	56	42.9866
115	12.28	47	42.9239
116	12.3	48	42.8612
117	12.32	53	42.7986
118	12.34	51	42.7361
119	12.36	51	42.6736
120	12.38	54	42.6113
121	12.4	44	42.549
122	12.42	53	42.4868
123	12.44	47	42.4247
124	12.46	41	42.3627
125	12.48	44	42.3008
126	12.5	44	42.2389
127	12.52	43	42.1771
128	12.54	39	42.1155
129	12.56	40	42.0538
130	12.58	43	41.9923
131	12.6	42	41.9309
132	12.62	46	41.8695
133	12.64	46	41.8082
134	12.66	44	41.747
135	12.68	41	41.6859
136	12.7	48	41.6249
137	12.72	43	41.564
138	12.74	41	41.5031
139	12.76	45	41.4423
140	12.78	48	41.3816
141	12.8	42	41.321
142	12.82	44	41.2604
143	12.84	41	41.2
144	12.86	39	41.1396
145	12.88	41	41.0793
146	12.9	40	41.0191
147	12.92	40	40.9589
148	12.94	46	40.8989
149	12.96	45	40.8389
150	12.98	45	40.779
151	13	41	40.7192
152	13.02	44	40.6595
153	13.04	42	40.5998
154	13.06	39	40.5403
155	13.08	40	40.4808
156	13.1	44	40.4213
157	13.12	38	40.362
158	13.14	42	40.3028
159	13.16	41	40.2436
160	13.18	40	40.1845
161	13.2	43	40.1255
162	13.22	42	40.0666
163	13.24	40	40.0077
164	13.26	44	39.949
165	13.28	45	39.8903
166	13.3	41	39.8316
167	13.32	40	39.7731
168	13.34	39	39.7147
169	13.36	41	39.6563
170	13.38	40	39.598
171	13.4	43	39.5398
172	13.42	40	39.4817
173	13.44	40	39.4236
174	13.46	40	39.3656
175	13.48	40	39.3077
176	13.5	44	39.2499
177	13.52	41	39.1922
178	13.54	43	39.1345
179	13.56	40	39.0769
180	13.58	34	39.0194
181	13.6	44	38.962
182	13.62	41	38.9047
183	13.64	40	38.8474
184	13.66	47	38.7902
185	13.68	39	38.7331
186	13.7	42	38.676
187	13.72	39	38.6191
188	13.74	39	38.5622
189	13.76	41	38.5054
190	13.78	42	38.4487
191	13.8	40	38.392
192	13.82	39	38.3355
193	13.84	42	38.279
194	13.86	37	38.2226
195	13.88	39	38.1662
196	13.9	44	38.11
197	13.92	39	38.0538
198	13.94	43	37.9977
199	13.96	43	37.9417
200	13.98	41	37.8857
201	14	37	37.8299
202	14.02	39	37.7741
203	14.04	41	37.7183
204	14.06	35	37.6627
205	14.08	37	37.6071
206	14.1	39	37.5517
207	14.12	34	37.4962
208	14.14	36	37.4409
209	14.16	36	37.3856
210	14.18	38	37.3305
211	14.2	34	37.2754
212	14.22	36	37.2203
213	14.24	35	37.1654
214	14.26	37	37.1105
215	14.28	41	37.0557
216	14.3	39	37.001
217	14.32	36	36.9463
218	14.34	36	36.8918
219	14.36	40	36.8373
220	14.38	35	36.7828
221	14.4	34	36.7285
222	14.42	36	36.6742
223	14.44	40	36.62
224	14.46	35	36.5659
225	14.48	40	36.5119
226	14.5	35	36.4579
227	14.52	41	36.404
228	14.54	34	36.3502
229	14.56	40	36.2964
230	14.58	40	36.2428
231	14.6	42	36.1892
232	14.62	35	36.1357
233	14.64	41	36.0822
234	14.66	40	36.0288
235	14.68	35	35.9755
236	14.7	40	35.9223
237	14.72	43	35.8692
238	14.74	38	35.8161
239	14.76	35	35.7631
240	14.78	38	35.7102
241	14.8	37	35.6573
242	14.82	35	35.6045
243	14.84	35	35.5518
244	14.86	35	35.4992
245	14.88	41	35.4467
246	14.9	39	35.3942
247	14.92	39	35.3418
248	14.94	34	35.2894
249	14.96	35	35.2372
250	14.98	42	35.185
251	15	41	35.1329
252	15.02	42	35.0808
253	15.04	44	35.0289
254	15.06	40	34.977
255	15.08	41	34.9252
256	15.1	35	34.8734
257	15.12	41	34.8217
258	15.14	39	34.7701
259	15.16	35	34.7186
260	15.18	42	34.6671
261	15.2	41	34.6158
262	15.22	38	34.5645
263	15.24	40	34.5132
264	15.26	41	34.4621
265	15.28	40	34.411
266	15.3	35	34.3599
267	15.32	35	34.309
268	15.34	35	34.2581
269	15.36	40	34.2073
270	15.38	35	34.1566
271	15.4	45	34.1059
272	15.42	35	34.0553
273	15.44	43	34.0048
274	15.46	35	33.9544
275	15.48	40	33.904
276	15.5	36	33.8537
277	15.52	38	33.8035
278	15.54	44	33.7533
279	15.56	41	33.7032
280	15.58	35	33.6532
281	15.6	40	33.6033
282	15.62	42	33.5534
283	15.64	37	33.5036
284	15.66	35	33.4538
285	15.68	35	33.4042
286	15.7	35	33.3546
287	15.72	35	33.3051
288	15.74	40	33.2556
289	15.76	41	33.2063
290	15.78	35	33.1569
291	15.8	37	33.1077
292	15.82	39	33.0585
293	15.84	35	33.0094
294	15.86	34	32.9604
295	15.88	36	32.9115
296	15.9	35	32.8626
297	15.92	37	32.8138
298	15.94	30	32.765
299	15.96	30	32.7164
300	15.98	35	32.6678
301	16	33	32.6192
302	16.02	33	32.5708
303	16.04	36	32.5224
304	16.06	34	32.474
305	16.08	35	32.4258
306	16.1	32	32.3776
307	16.12	34	32.3295
308	16.14	32	32.2814
309	16.16	35	32.2335
310	16.18	35	32.1856
311	16.2	35	32.1377
312	16.22	37	32.0899
313	16.24	29	32.0422
314	16.26	33	31.9946
315	16.28	30	31.947
316	16.3	31	31.8996
317	16.32	33	31.8521
318	16.34	30	31.8048
319	16.36	31	31.7575
320	16.38	34	31.7103
321	16.4	32	31.6631
322	16.42	29	31.616
323	16.44	31	31.569
324	16.46	28	31.5221
325	16.48	30	31.4752
326	16.5	34	31.4284
327	16.52	33	31.3816
328	16.54	31	31.335
329	16.56	30	31.2884
330	16.58	30	31.2418
331	16.6	33	31.1954
332	16.62	33	31.149
333	16.64	28	31.1026
334	16.66	27	31.0564
335	16.68	30	31.0102
336	16.7	31	30.964
337	16.72	27	30.918
338	16.74	33	30.872
339	16.76	30	30.826
340	16.78	29	30.7802
341	16.8	28	30.7344
342	16.82	29	30.6887
343	16.84	30	30.643
344	16.86	27	30.5974
345	16.88	28	30.5519
346	16.9	25	30.5064
347	16.92	30	30.461
348	16.94	32	30.4157
349	16.96	25	30.3704
350	16.98	25	30.3252
351	17	30	30.2801
352	17.02	33	30.2351
353	17.04	30	30.1901
354	17.06	29	30.1451
355	17.08	27	30.1003
356	17.1	25	30.0555
357	17.12	27	30.0107
358	17.14	29	29.9661
359	17.16	24	29.9215
360	17.18	31	29.8769
361	17.2	33	29.8325
362	17.22	30	29.7881
363	17.24	31	29.7437
364	17.26	30	29.6995
365	17.28	28	29.6553
366	17.3	25	29.6111
367	17.32	29	29.5671
368	17.34	30	29.5231
369	17.36	31	29.4791
370	17.38	24	29.4352
371	17.4	29	29.3914
372	17.42	30	29.3477
373	17.44	30	29.304
374	17.46	27	29.2604
375	17.48	25	29.2168
376	17.5	29	29.1733
377	17.52	30	29.1299
378	17.54	33	29.0866
379	17.56	30	29.0433
380	17.58	25	29
381	17.6	34	28.9569
382	17.62	24	28.9138
383	17.64	26	28.8707
384	17.66	25	28.8278
385	17.68	27	28.7849
386	17.7	24	28.742
387	17.72	29	28.6992
388	17.74	26	28.6565
389	17.76	31	28.6139
390	17.78	27	28.5713
391	17.8	21	28.5288
392	17.82	33	28.4863
393	17.84	26	28.4439
394	17.86	24	28.4016
395	17.88	25	28.3593
396	17.9	29	28.3171
397	17.92	24	28.275
398	17.94	25	28.2329
399	17.96	27	28.1909
400	17.98	29	28.1489
401	18	28	28.107
402	18.02	31	28.0652
403	18.04	33	28.0235
404	18.06	27	27.9817
405	18.08	25	27.9401
406	18.1	24	27.8985
407	18.12	23	27.857
408	18.14	26	27.8156
409	18.16	32	27.7742
410	18.18	27	27.7329
411	18.2	24	27.6916
412	18.22	24	27.6504
413	18.24	28	27.6093
414	18.26	23	27.5682
415	18.28	26	27.5272
416	18.3	24	27.6209
417	18.32	26	27.5897
418	18.34	31	27.6246
419	18.36	27	27.6005
420	18.38	24	27.5784
421	18.4	25	27.5586
422	18.42	26	27.5416
423	18.44	23	27.5277
424	18.46	21	27.5177
425	18.48	23	27.5122
426	18.5	29	27.5125
427	18.52	27	27.52
428	18.54	26	27.5375
429	18.56	28	27.5692
430	18.58	27	27.6221
431	18.6	28	27.7079
432	18.62	26	27.8447
433	18.64	29	28.0588
434	18.66	24	28.3863
435	18.68	28	28.8741
436	18.7	27	29.5864
437	18.72	26	30.6305
438	18.74	27	32.2096
439	18.76	28	34.6679
440	18.78	35	38.409
441	18.8	37	43.6185
442	18.82	39	49.9663
443	18.84	50	56.4863
444	18.86	57	61.4049
445	18.88	59	62.2307
446	18.9	55	58.0058
447	18.92	42	50.6419
448	18.94	40	42.3863
449	18.96	34	35.1736
450	18.98	24	30.2253
451	19	29	27.5896
452	19.02	27	26.4482
453	19.04	25	26.1354
454	19.06	25	26.2532
455	19.08	24	26.373
456	19.1	23	26.5026
457	19.12	25	26.5724
458	19.14	24	26.581
459	19.16	23	26.5406
460	19.18	21	26.4677
461	19.2	24	26.3774
462	19.22	23	26.281
463	19.24	24	26.1852
464	19.26	25	26.0936
465	19.28	26	26.0077
466	19.3	28	25.9275
467	19.32	24	25.8527
468	19.34	25	25.7825
469	19.36	25	25.7163
470	19.38	25	25.6535
471	19.4	24	25.5937
472	19.42	24	25.5365
473	19.44	22	25.4813
474	19.46	23	25.4281
475	19.48	24	25.2512
476	19.5	26	25.2089
477	19.52	23	25.1672
478	19.54	24	25.0663
479	19.56	24	25.0291
480	19.58	26	24.992
481	19.6	21	24.955
482	19.62	23	24.918
483	19.64	22	24.8811
484	19.66	26	24.8442
485	19.68	23	24.8074
486	19.7	21	24.7706
487	19.72	21	24.7339
488	19.74	23	24.6973
489	19.76	25	24.6607
490	19.78	23	24.6242
491	19.8	22	24.5877
492	19.82	21	24.5513
493	19.84	20	24.515
494	19.86	25	24.4787
495	19.88	27	24.4425
496	19.9	25	24.4063
497	19.92	20	24.3702
498	19.94	21	24.3341
499	19.96	23	24.2981
500	19.98	22	24.2621
501	20	21	24.2262
502	20.02	21	24.1904
503	20.04	24	24.1546
504	20.06	23	24.1189
505	20.08	26	24.0832
506	20.1	21	24.0476
507	20.12	23	24.0121
508	20.14	25	23.9766
509	20.16	24	23.9411
510	20.18	20	23.9058
511	20.2	23	23.8704
512	20.22	20	23.8352
513	20.24	20	23.7999
514	20.26	21	23.7648
515	20.28	20	23.7297
516	20.3	24	23.6946
517	20.32	21	23.6596
518	20.34	20	23.6247
519	20.36	16	23.5898
520	20.38	19	23.555
521	20.4	21	23.5202
522	20.42	23	23.4855
523	20.44	19	23.4509
524	20.46	20	23.4163
525	20.48	23	23.3817
526	20.5	20	23.3472
527	20.52	24	23.3128
528	20.54	21	23.2784
529	20.56	23	23.2441
530	20.58	21	23.2098
531	20.6	19	23.1756
532	20.62	20	23.1414
533	20.64	17	23.1073
534	20.66	19	23.0733
535	20.68	15	23.0393
536	20.7	23	23.0054
537	20.72	21	22.9715
538	20.74	20	22.9376
539	20.76	19	22.9039
540	20.78	22	22.8701
541	20.8	25	22.8365
542	20.82	17	22.8029
543	20.84	21	22.7693
544	20.86	27	22.7358
545	20.88	24	22.7024
546	20.9	20	22.669
547	20.92	25	22.6356
548	20.94	23	22.6023
549	20.96	25	22.6346
550	20.98	20	22.6061
551	21	19	22.5782
552	21.02	20	22.584
553	21.04	23	22.6001
554	21.06	25	22.5801
555	21.08	18	22.5806
556	21.1	22	22.5656
557	21.12	19	22.5529
558	21.14	21	22.5431
559	21.16	19	22.5369
560	21.18	18	22.535
561	21.2	22	22.5388
562	21.22	19	22.5502
563	21.24	24	22.5727
564	21.26	21	22.6114
565	21.28	28	22.6747
566	21.3	22	22.7751
567	21.32	20	22.9302
568	21.34	23	23.1636
569	21.36	20	23.5084
570	21.38	25	24.0171
571	21.4	21	24.7851
572	21.42	28	25.974
573	21.44	25	27.7898
574	21.46	31	30.3794
575	21.48	33	33.7123
576	21.5	38	37.5211
577	21.52	40	41.1547
578	21.54	45	43.4474
579	21.56	45	43.7034
580	21.58	41	42.5094
581	21.6	40	40.2299
582	21.62	35	36.7968
583	21.64	31	32.8757
584	21.66	30	29.3423
585	21.68	28	26.466
586	21.7	23	24.3288
587	21.72	21	22.9635
588	21.74	20	22.2292
589	21.76	20	21.9109
590	21.78	19	21.8091
591	21.8	22	21.7859
592	21.82	20	21.7723
593	21.84	21	21.7445
594	21.86	20	21.6988
595	21.88	19	21.6388
596	21.9	20	21.5699
597	21.92	15	21.4974
598	21.94	20	21.4249
599	21.96	20	21.355
600	21.98	23	21.2888
601	22	21	21.2265
602	22.02	20	21.1681
603	22.04	15	21.1131
604	22.06	22	21.0611
605	22.08	18	21.0118
606	22.1	23	20.9647
607	22.12	25	20.9195
608	22.14	20	20.8146
609	22.16	17	20.7763
610	22.18	20	20.739
611	22.2	23	20.6726
612	22.22	18	20.6029
613	22.24	20	20.5716
614	22.26	20	20.5219
615	22.28	17	20.4921
616	22.3	18	20.4624
617	22.32	17	20.4327
618	22.34	15	20.403
619	22.36	19	20.3734
620	22.38	17	20.3439
621	22.4	18	20.3144
622	22.42	21	20.2849
623	22.44	20	20.2555
624	22.46	17	20.2262
625	22.48	20	20.1969
626	22.5	17	20.1676
627	22.52	19	20.1384
628	22.54	21	20.1093
629	22.56	18	20.0802
630	22.58	15	20.0511
631	22.6	20	20.0221
632	22.62	19	19.9932
633	22.64	14	19.9643
634	22.66	23	19.9354
635	22.68	17	19.9066
636	22.7	22	19.8778
637	22.72	17	19.8491
638	22.74	20	19.8205
639	22.76	21	19.7919
640	22.78	20	19.7633
641	22.8	23	19.7348
642	22.82	20	19.7063
643	22.84	17	19.6779
644	22.86	25	19.6495
645	22.88	17	19.6212
646	22.9	19	19.593
647	22.92	17	19.5647
648	22.94	19	19.5366
649	22.96	20	19.5084
650	22.98	23	19.4803
651	23	18	19.4523
652	23.02	20	19.4243
653	23.04	17	19.3964
654	23.06	20	19.3685
655	23.08	19	19.3407
656	23.1	20	19.3129
657	23.12	20	19.2852
658	23.14	17	19.2575
659	23.16	21	19.2298
660	23.18	17	19.2022
661	23.2	19	19.1747
662	23.22	15	19.1472
663	23.24	17	19.1197
664	23.26	20	19.0923
665	23.28	22	19.0649
666	23.3	20	19.0376
667	23.32	21	19.0104
668	23.34	20	18.9831
669	23.36	18	18.956
670	23.38	15	18.9288
671	23.4	17	18.9018
672	23.42	19	18.8747
673	23.44	20	18.8477
674	23.46	18	18.8208
675	23.48	15	18.7939
676	23.5	19	18.7671
677	23.52	20	18.7403
678	23.54	18	18.7135
679	23.56	15	20.4578
680	23.58	17	20.5596
681	23.6	15	20.6759
682	23.62	15	21.6829
683	23.64	21	21.8987
684	23.66	17	22.1442
685	23.68	20	22.4245
686	23.7	15	22.746
687	23.72	16	23.1164
688	23.74	20	23.546
689	23.76	22	24.0485
690	23.78	25	24.6437
691	23.8	27	25.3619
692	23.82	29	26.2518
693	23.84	32	27.393
694	23.86	40	28.914
695	23.88	40	31.0147
696	23.9	55	33.9882
697	23.92	57	38.2362
698	23.94	67	44.289
699	23.96	83	52.8902
700	23.98	79	65.3052
701	24	98	83.9397
702	24.02	143	112.813
703	24.04	166	156.554
704	24.06	227	217.334
705	24.08	316	291.812
706	24.1	370	369.492
707	24.12	419	428.28
708	24.14	429	436.962
709	24.16	388	391.243
710	24.18	320	320.808
711	24.2	229	243.61
712	24.22	158	167.1
713	24.24	99	104.529
714	24.26	64	63.121
715	24.28	43	40.7979
716	24.3	31	31.3347
717	24.32	29	28.5026
718	24.34	31	28.2216
719	24.36	27	28.5428
720	24.38	28	28.7237
721	24.4	26	28.5518
722	24.42	30	28.0434
723	24.44	24	27.3056
724	24.46	25	26.458
725	24.48	21	25.5952
726	24.5	23	24.7764
727	24.52	19	24.0309
728	24.54	21	23.3676
729	24.56	18	22.7836
730	24.58	17	22.2709
731	24.6	23	21.82
732	24.62	19	21.4221
733	24.64	21	21.0688
734	24.66	20	20.7538
735	24.68	22	20.4712
736	24.7	18	20.2165
737	24.72	19	19.9858
738	24.74	20	18.1731
739	24.76	19	18.0814
740	24.78	18	17.9966
741	24.8	18	17.1201
742	24.82	17	17.0963
743	24.84	19	17.0724
744	24.86	18	17.0486
745	24.88	17	17.0249
746	24.9	15	17.0012
747	24.92	19	16.9776
748	24.94	18	16.9539
749	24.96	15	16.9304
750	24.98	16	16.9068
751	25	20	16.8834
752	25.02	15	16.8599
753	25.04	17	16.8365
754	25.06	15	16.8132
755	25.08	16	16.7899
756	25.1	19	16.7666
757	25.12	14	16.7434
758	25.14	17	16.7202
759	25.16	16	16.697
760	25.18	13	16.6739
761	25.2	15	16.6509
762	25.22	15	16.6279
763	25.24	19	16.6049
764	25.26	18	16.5819
765	25.28	17	16.5591
766	25.3	20	16.5362
767	25.32	19	16.5134
768	25.34	15	16.4906
769	25.36	18	16.4679
770	25.38	17	16.4452
771	25.4	19	16.4226
772	25.42	16	16.4
773	25.44	15	16.3775
774	25.46	14	16.3549
775	25.48	15	16.3325
776	25.5	15	16.31
777	25.52	19	16.2877
778	25.54	18	16.2653
779	25.56	16	16.243
780	25.58	15	16.2207
781	25.6	21	16.1985
782	25.62	20	16.1763
783	25.64	14	16.1542
784	25.66	18	16.1321
785	25.68	18	16.11
786	25.7	18	16.088
787	25.72	17	16.066
788	25.74	20	16.0441
789	25.76	17	16.0222
790	25.78	14	16.0004
791	25.8	16	15.9786
792	25.82	15	15.9568
793	25.84	19	15.9351
794	25.86	17	15.9134
795	25.88	14	15.8917
796	25.9	13	15.8701
797	25.92	17	15.8485
798	25.94	16	15.827
799	25.96	19	15.8055
800	25.98	15	15.7841
801	26	16	15.7627
802	26.02	15	15.7413
803	26.04	21	15.72
804	26.06	20	15.6987
805	26.08	18	15.6775
806	26.1	15	15.6563
807	26.12	17	15.6351
808	26.14	20	15.614
809	26.16	14	15.5929
810	26.18	14	15.5718
811	26.2	18	15.5508
812	26.22	20	15.5299
813	26.24	17	15.5089
814	26.26	19	15.4881
815	26.28	16	15.4672
816	26.3	14	15.4464
817	26.32	15	15.4256
818	26.34	21	15.4049
819	26.36	16	15.3842
820	26.38	19	15.3636
821	26.4	21	15.343
822	26.42	20	15.3224
823	26.44	18	15.3019
824	26.46	17	15.2814
825	26.48	19	15.2609
826	26.5	18	15.2405
827	26.52	17	15.2201
828	26.54	18	15.1998
829	26.56	17	15.1795
830	26.58	18	15.1592
831	26.6	21	15.139
832	26.62	17	15.1188
833	26.64	19	15.0987
834	26.66	20	15.0786
835	26.68	18	15.0585
836	26.7	19	15.0385
837	26.72	18	15.0185
838	26.74	21	14.9986
839	26.76	18	14.9787
840	26.78	15	14.9588
841	26.8	17	14.939
842	26.82	19	14.9192
843	26.84	15	14.8994
844	26.86	17	14.8797
845	26.88	17	14.86
846	26.9	14	14.8404
847	26.92	21	14.8208
848	26.94	14	14.8012
849	26.96	17	14.7817
850	26.98	17	14.7622
851	27	14	14.7427
852	27.02	16	14.7233
853	27.04	19	14.7039
854	27.06	19	14.6846
855	27.08	17	14.6653
856	27.1	16	14.646
857	27.12	19	14.6268
858	27.14	17	14.6076
859	27.16	16	14.5885
860	27.18	20	14.5694
861	27.2	17	14.5503
862	27.22	15	14.5313
863	27.24	14	14.5122
864	27.26	15	14.4933
865	27.28	15	14.4744
866	27.3	18	14.4555
867	27.32	15	14.4366
868	27.34	15	14.4178
869	27.36	12	14.399
870	27.38	17	14.3803
871	27.4	15	14.3616
872	27.42	15	14.3429
873	27.44	13	14.3243
874	27.46	15	14.3057
875	27.48	16	14.2871
876	27.5	19	14.2686
877	27.52	17	14.2501
878	27.54	15	14.2317
879	27.56	15	14.2133
880	27.58	21	14.1949
881	27.6	18	14.1766
882	27.62	15	14.1583
883	27.64	16	14.14
884	27.66	10	14.1218
885	27.68	14	14.1036
886	27.7	15	14.0854
887	27.72	16	14.0673
888	27.74	13	14.0492
889	27.76	15	14.0312
890	27.78	13	14.0132
891	27.8	15	13.9952
892	27.82	13	13.9773
893	27.84	15	13.9594
894	27.86	14	13.9415
895	27.88	16	13.9237
896	27.9	17	13.9059
897	27.92	16	13.8881
898	27.94	15	13.8704
899	27.96	13	13.8527
900	27.98	14	13.8351
901	28	17	13.8174
902	28.02	19	13.7999
903	28.04	17	13.7823
904	28.06	15	13.7648
905	28.08	18	13.7473
906	28.1	17	13.7299
907	28.12	19	13.7125
908	28.14	18	13.6951
909	28.16	13	13.6778
910	28.18	12	13.6605
911	28.2	11	13.6432
912	28.22	17	13.626
913	28.24	13	13.6088
914	28.26	17	13.5916
915	28.28	15	13.5745
916	28.3	15	13.5574
917	28.32	12	13.5404
918	28.34	15	13.5234
919	28.36	16	13.5064
920	28.38	17	13.4894
921	28.4	11	13.4725
922	28.42	13	13.4556
923	28.44	13	13.4388
924	28.46	10	13.422
925	28.48	19	13.4052
926	28.5	15	13.3885
927	28.52	18	13.3717
928	28.54	16	13.3551
929	28.56	11	13.3384
930	28.58	18	13.3218
931	28.6	14	13.3053
932	28.62	15	13.2887
933	28.64	13	13.2722
934	28.66	14	13.2557
935	28.68	12	13.2393
936	28.7	11	13.2229
937	28.72	13	13.2065
938	28.74	15	13.1902
939	28.76	15	13.1739
940	28.78	13	13.1577
941	28.8	15	13.1414
942	28.82	16	13.1252
943	28.84	17	13.1091
944	28.86	13	13.0929
945	28.88	11	13.0768
946	28.9	15	13.0608
947	28.92	16	13.0447
948	28.94	13	13.0287
949	28.96	17	13.0128
950	28.98	11	12.9969
951	29	12	12.981
952	29.02	14	12.9651
953	29.04	11	12.9493
954	29.06	15	12.9335
955	29.08	17	12.9177
956	29.1	13	12.902
957	29.12	12	12.8863
958	29.14	15	12.8706
959	29.16	17	12.855
960	29.18	13	12.8394
961	29.2	12	12.8238
962	29.22	11	12.8083
963	29.24	13	12.7928
964	29.26	14	12.7773
965	29.28	14	12.7619
966	29.3	21	12.7465
967	29.32	19	12.7311
968	29.34	17	12.7158
969	29.36	13	12.7005
970	29.38	21	12.6852
971	29.4	15	12.67
972	29.42	18	12.6548
973	29.44	15	12.6396
974	29.46	16	12.6244
975	29.48	11	12.6093
976	29.5	12	19.2782
977	29.52	15	19.7642
978	29.54	16	20.3084
979	29.56	26	24.0427
980	29.58	33	24.9606
981	29.6	25	25.9969
982	29.62	31	27.1723
983	29.64	28	28.5133
984	29.66	34	30.0527
985	29.68	35	31.8343
986	29.7	33	33.9179
987	29.72	41	36.3921
988	29.74	40	39.3928
989	29.76	46	43.1382
990	29.78	50	47.9785
991	29.8	71	54.465
992	29.82	75	63.4186
993	29.84	91	75.9914
994	29.86	111	93.7199
995	29.88	151	118.717
996	29.9	172	154.388
997	29.92	233	207.18
998	29.94	289	288.589
999	29.96	415	413.887
1000	29.98	631	593.996
1001	30	835	824.78
1002	30.02	960	1079.53
1003	30.04	1198	1292.35
1004	30.06	1289	1353.42
1005	30.08	1121	1231.56
1006	30.1	1021	1042.01
1007	30.12	809	867.578
1008	30.14	669	718.654
1009	30.16	524	521.478
1010	30.18	351	346.268
1011	30.2	226	224.694
1012	30.22	159	171.678
1013	30.24	128	142.128
1014	30.26	124	132.936
1015	30.28	123	132.92
1016	30.3	126	136.7
1017	30.32	129	142.169
1018	30.34	134	148.782
1019	30.36	149	156.793
1020	30.38	167	166.942
1021	30.4	180	180.369
1022	30.42	199	198.74
1023	30.44	231	224.505
1024	30.46	298	261.252
1025	30.48	371	313.989
1026	30.5	481	389.414
1027	30.52	615	496.635
1028	30.54	810	650.029
1029	30.56	1041	876.662
1030	30.58	1341	1225.76
1031	30.6	1859	1765.69
1032	30.62	2411	2550.83
1033	30.64	3384	3566.46
1034	30.66	4669	4724.34
1035	30.68	5981	5728.08
1036	30.7	6221	6088.76
1037	30.72	5409	5593.99
1038	30.74	4558	4749.97
1039	30.76	3959	3980.32
1040	30.78	3411	3224.84
1041	30.8	2481	2352.17
1042	30.82	1520	1525
1043	30.84	859	918.677
1044	30.86	539	557.813
1045	30.88	380	378.585
1046	30.9	318	301.492
1047	30.92	258	270.648
1048	30.94	232	257.592
1049	30.96	224	250.406
1050	30.98	216	245.147
1051	31	225	241.753
1052	31.02	221	242.065
1053	31.04	244	248.783
1054	31.06	264	265.305
1055	31.08	311	296.758
1056	31.1	382	352.236
1057	31.12	439	446.075
1058	31.14	549	593.62
1059	31.16	724	800.472
1060	31.18	1029	1052.65
1061	31.2	1371	1306
1062	31.22	1511	1462.98
1063	31.24	1359	1421.92
1064	31.26	1151	1237.93
1065	31.28	1021	1018.3
1066	31.3	912	853.815
1067	31.32	713	668.308
1068	31.34	466	465.555
1069	31.36	284	282.339
1070	31.38	175	170.934
1071	31.4	121	109.92
1072	31.42	94	81.2023
1073	31.44	77	69.8352
1074	31.46	59	64.0696
1075	31.48	60	60.5653
1076	31.5	60	57.5104
1077	31.52	55	54.3064
1078	31.54	50	51.5256
1079	31.56	46	48.1541
1080	31.58	47	44.952
1081	31.6	41	42.0528
1082	31.62	41	39.5237
1083	31.64	35	37.3811
1084	31.66	34	35.614
1085	31.68	35	34.2038
1086	31.7	33	33.1388
1087	31.72	30	32.4266
1088	31.74	31	32.1061
1089	31.76	34	32.2602
1090	31.78	31	33.027
1091	31.8	32	34.6099
1092	31.82	33	30.9731
1093	31.84	41	35.5546
1094	31.86	46	42.3031
1095	31.88	65	52.5821
1096	31.9	70	65.5554
1097	31.92	104	90.3763
1098	31.94	151	125.094
1099	31.96	192	168.026
1100	31.98	221	212.707
1101	32	282	243.927
1102	32.02	286	242.639
1103	32.04	241	213.894
1104	32.06	201	181.792
1105	32.08	159	155.559
1106	32.1	131	127.322
1107	32.12	95	93.9036
1108	32.14	60	63.6125
1109	32.16	51	42.3266
1110	32.18	30	30.0394
1111	32.2	21	23.9759
1112	32.22	20	21.237
1113	32.24	18	19.9555
1114	32.26	20	19.2127
1115	32.28	19	18.6165
1116	32.3	15	18.0223
1117	32.32	20	17.4019
1118	32.34	15	16.7743
1119	32.36	15	16.1688
1120	32.38	15	15.6082
1121	32.4	17	15.104
1122	32.42	14	14.6586
1123	32.44	15	14.2687
1124	32.46	13	13.9282
1125	32.48	13	13.6303
1126	32.5	12	13.3687
1127	32.52	15	13.1377
1128	32.54	14	12.9326
1129	32.56	12	12.7497
1130	32.58	10	12.5856
1131	32.6	10	11.3473
1132	32.62	17	11.2832
1133	32.64	11	11.2249
1134	32.66	14	11.1714
1135	32.68	12	10.5781
1136	32.7	10	10.5676
1137	32.72	12	10.5572
1138	32.74	11	10.5468
1139	32.76	12	10.5364
1140	32.78	10	10.526
1141	32.8	13	10.5157
1142	32.82	14	10.5054
1143	32.84	10	10.4951
1144	32.86	12	10.4849
1145	32.88	14	10.4746
1146	32.9	10	10.4644
1147	32.92	12	10.4543
1148	32.94	10	10.4441
1149	32.96	14	10.434
1150	32.98	11	10.4239
1151	33	13	10.4138
1152	33.02	12	10.4037
1153	33.04	15	10.3937
1154	33.06	10	10.3837
1155	33.08	14	10.3737
1156	33.1	13	10.3638
1157	33.12	14	10.3539
1158	33.14	11	10.344
1159	33.16	14	10.3341
1160	33.18	13	10.3242
1161	33.2	11	10.3144
1162	33.22	12	10.3046
1163	33.24	13	10.2948
1164	33.26	12	10.2851
1165	33.28	10	10.2753
1166	33.3	10	10.2656
1167	33.32	13	10.256
1168	33.34	10	10.2463
1169	33.36	13	10.2367
1170	33.38	10	10.2271
1171	33.4	11	10.2175
1172	33.42	14	10.2202
1173	33.44	10	10.2116
1174	33.46	11	10.2031
1175	33.48	12	10.1948
1176	33.5	10	10.1925
1177	33.52	13	10.185
1178	33.54	10	10.1778
1179	33.56	9	10.1709
1180	33.58	10	10.1644
1181	33.6	13	10.1583
1182	33.62	10	10.1529
1183	33.64	11	10.1482
1184	33.66	10	10.1445
1185	33.68	12	10.1421
1186	33.7	9	10.1418
1187	33.72	11	10.1445
1188	33.74	10	10.1517
1189	33.76	13	10.1653
1190	33.78	10	10.1881
1191	33.8	12	10.2239
1192	33.82	11	10.2789
1193	33.84	10	10.3649
1194	33.86	12	10.5029
1195	33.88	14	10.719
1196	33.9	11	11.0306
1197	33.92	13	11.4276
1198	33.94	14	11.855
1199	33.96	15	12.1739
1200	33.98	13	12.1861
1201	34	10	11.9089
1202	34.02	12	11.588
1203	34.04	13	11.3511
1204	34.06	12	11.1292
1205	34.08	11	10.8336
1206	34.1	14	10.5198
1207	34.12	10	10.2726
1208	34.14	14	10.114
1209	34.16	11	10.0254
1210	34.18	14	9.97834
1211	34.2	12	10.0214
1212	34.22	9	10.0078
1213	34.24	8	9.99787
1214	34.26	10	9.98938
1215	34.28	8	9.98176
1216	34.3	11	10.0112
1217	34.32	10	10.0086
1218	34.34	9	10.0082
1219	34.36	7	10.0103
1220	34.38	12	10.0154
1221	34.4	8	10.0239
1222	34.42	7	10.0366
1223	34.44	11	10.0545
1224	34.46	9	10.0793
1225	34.48	10	10.1137
1226	34.5	8	10.1621
1227	34.52	9	10.231
1228	34.54	8	10.3302
1229	34.56	9	10.4621
1230	34.58	11	10.667
1231	34.6	10	10.9592
1232	34.62	14	11.3847
1233	34.64	12	12.0256
1234	34.66	13	13.0337
1235	34.68	17	14.5535
1236	34.7	20	16.6424
1237	34.72	22	19.1621
1238	34.74	20	21.6365
1239	34.76	34	23.0073
1240	34.78	31	22.34
1241	34.8	20	20.4563
1242	34.82	15	18.7833
1243	34.84	18	17.6288
1244	34.86	14	16.3458
1245	34.88	12	14.5914
1246	34.9	11	12.8597
1247	34.92	13	11.5806
1248	34.94	10	10.8066
1249	34.96	10	10.4002
1250	34.98	11	10.1999
1251	35	10	10.096
1252	35.02	14	10.0317
1253	35.04	10	9.98134
1254	35.06	9	9.93454
1255	35.08	11	9.88833
1256	35.1	10	9.843
1257	35.12	9	9.79972
1258	35.14	8	9.75948
1259	35.16	11	9.72277
1260	35.18	13	9.73312
1261	35.2	11	9.70658
1262	35.22	14	9.68337
1263	35.24	11	9.66314
1264	35.26	10	9.64557
1265	35.28	8	9.65259
1266	35.3	13	9.64141
1267	35.32	11	9.63261
1268	35.34	9	9.55833
1269	35.36	11	9.5589
1270	35.38	11	9.56183
1271	35.4	10	9.56758
1272	35.42	9	9.57694
1273	35.44	10	9.55869
1274	35.46	11	9.58189
1275	35.48	9	9.61496
1276	35.5	9	9.66272
1277	35.52	11	9.73193
1278	35.54	10	9.83166
1279	35.56	13	9.97429
1280	35.58	12	10.1799
1281	35.6	10	10.486
1282	35.62	14	10.9604
1283	35.64	12	11.6949
1284	35.66	11	12.7603
1285	35.68	14	14.1409
1286	35.7	18	15.6703
1287	35.72	23	16.8922
1288	35.74	17	17.0781
1289	35.76	13	16.1665
1290	35.78	15	15.1959
1291	35.8	13	14.4296
1292	35.82	12	13.8589
1293	35.84	10	13.0404
1294	35.86	10	12.0736
1295	35.88	12	11.1657
1296	35.9	11	10.5566
1297	35.92	10	10.2225
1298	35.94	10	10.683
1299	35.96	12	10.6759
1300	35.98	10	10.7234
1301	36	9	10.8035
1302	36.02	11	10.9092
1303	36.04	10	11.3524
1304	36.06	8	11.546
1305	36.08	11	11.7938
1306	36.1	10	12.1178
1307	36.12	12	12.5481
1308	36.14	10	13.1244
1309	36.16	14	13.9023
1310	36.18	18	14.9724
1311	36.2	20	16.5037
1312	36.22	24	18.7884
1313	36.24	26	22.2064
1314	36.26	31	27.0515
1315	36.28	34	33.2955
1316	36.3	41	40.3357
1317	36.32	51	46.4016
1318	36.34	50	49.2708
1319	36.36	65	49.959
1320	36.38	61	52.7842
1321	36.4	71	60.6783
1322	36.42	86	73.768
1323	36.44	101	90.1728
1324	36.46	131	107.763
1325	36.48	135	121.196
1326	36.5	141	120.773
1327	36.52	106	106.266
1328	36.54	90	89.9861
1329	36.56	81	79.4237
1330	36.58	74	72.0387
1331	36.6	71	61.1857
1332	36.62	56	46.6737
1333	36.64	34	33.5392
1334	36.66	28	24.4117
1335	36.68	21	19.0909
1336	36.7	18	16.316
1337	36.72	14	14.9028
1338	36.74	10	14.1196
1339	36.76	13	13.6484
1340	36.78	17	13.232
1341	36.8	15	12.8498
1342	36.82	11	12.4848
1343	36.84	9	12.14
1344	36.86	10	11.8465
1345	36.88	11	11.5632
1346	36.9	10	11.1628
1347	36.92	11	10.9567
1348	36.94	13	10.7797
1349	36.96	14	10.6285
1350	36.98	11	10.5003
1351	37	10	10.319
1352	37.02	11	10.235
1353	37.04	10	10.1691
1354	37.06	12	9.53544
1355	37.08	10	9.55024
1356	37.1	10	9.58885
1357	37.12	8	9.65954
1358	37.14	11	9.77368
1359	37.16	11	9.66285
1360	37.18	10	9.94699
1361	37.2	13	10.3782
1362	37.22	13	11.0492
1363	37.24	12	12.0591
1364	37.26	13	13.4466
1365	37.28	15	15.1173
1366	37.3	19	16.7285
1367	37.32	17	17.5212
1368	37.34	19	16.92
1369	37.36	16	15.605
1370	37.38	14	14.5505
1371	37.4	12	13.9595
1372	37.42	17	13.3708
1373	37.44	14	12.3754
1374	37.46	15	11.2264
1375	37.48	13	10.3007
1376	37.5	10	9.70386
1377	37.52	11	9.37216
1378	37.54	10	9.20126
1379	37.56	10	9.11117
1380	37.58	12	9.05707
1381	37.6	11	9.01748
1382	37.62	11	8.98301
1383	37.64	10	8.9503
1384	37.66	9	8.9188
1385	37.68	12	8.88894
1386	37.7	11	8.86126
1387	37.72	12	8.83605
1388	37.74	12	8.97755
1389	37.76	11	8.96945
1390	37.78	9	8.96482
1391	37.8	10	8.96362
1392	37.82	8	8.96585
1393	37.84	9	9.05319
1394	37.86	10	9.06889
1395	37.88	11	9.08944
1396	37.9	9	9.06973
1397	37.92	10	9.10518
1398	37.94	9	9.14801
1399	37.96	10	9.20011
1400	37.98	9	9.26431
1401	38	8	9.32265
1402	38.02	10	9.4285
1403	38.04	9	9.56897
1404	38.06	10	9.76079
1405	38.08	7	10.0278
1406	38.1	10	10.402
1407	38.12	11	10.9269
1408	38.14	14	11.6702
1409	38.16	13	12.7574
1410	38.18	15	14.4191
1411	38.2	18	16.9868
1412	38.22	21	20.7538
1413	38.24	27	25.7346
1414	38.26	31	31.4115
1415	38.28	41	36.1871
1416	38.3	47	37.2391
1417	38.32	52	33.9284
1418	38.34	37	29.5555
1419	38.36	31	26.6934
1420	38.38	30	25.2036
1421	38.4	24	23.2198
1422	38.42	21	19.7892
1423	38.44	20	16.1029
1424	38.46	13	13.2787
1425	38.48	11	11.5173
1426	38.5	10	10.5575
1427	38.52	10	10.0653
1428	38.54	10	9.80375
1429	38.56	10	9.6446
1430	38.58	10	9.52674
1431	38.6	8	9.4239
1432	38.62	9	9.3271
1433	38.64	10	9.23521
1434	38.66	11	9.14964
1435	38.68	10	9.07182
1436	38.7	9	9.00237
1437	38.72	11	8.9411
1438	38.74	11	8.88731
1439	38.76	9	8.84005
1440	38.78	10	8.79839
1441	38.8	11	8.76146
1442	38.82	9	8.72853
1443	38.84	12	8.69899
1444	38.86	7	8.67233
1445	38.88	9	8.49845
1446	38.9	8	8.48604
1447	38.92	9	9.53817
1448	38.94	10	9.60872
1449	38.96	10	9.61029
1450	38.98	9	9.70827
1451	39	11	9.8194
1452	39.02	9	10.4679
1453	39.04	10	10.6526
1454	39.06	11	10.8639
1455	39.08	10	11.1074
1456	39.1	10	11.3901
1457	39.12	14	11.7218
1458	39.14	11	12.1166
1459	39.16	14	12.596
1460	39.18	11	13.1937
1461	39.2	12	13.9632
1462	39.22	14	14.987
1463	39.24	15	16.3859
1464	39.26	17	18.3285
1465	39.28	21	21.0384
1466	39.3	25	24.8325
1467	39.32	30	30.2457
1468	39.34	44	38.2957
1469	39.36	51	50.7114
1470	39.38	70	69.6042
1471	39.4	94	96.2675
1472	39.42	130	129.674
1473	39.44	165	164.246
1474	39.46	179	185.663
1475	39.48	181	178.295
1476	39.5	138	151.241
1477	39.52	118	127.078
1478	39.54	111	114.704
1479	39.56	106	107.833
1480	39.58	97	94.0085
1481	39.6	70	71.7689
1482	39.62	49	50.1911
1483	39.64	34	34.6598
1484	39.66	24	25.3391
1485	39.68	21	20.3459
1486	39.7	15	17.762
1487	39.72	17	16.3424
1488	39.74	15	15.4366
1489	39.76	11	14.7384
1490	39.78	18	14.1196
1491	39.8	12	13.54
1492	39.82	11	12.9972
1493	39.84	10	12.4994
1494	39.86	13	12.0529
1495	39.88	12	11.6593
1496	39.9	11	11.3158
1497	39.92	10	11.0171
1498	39.94	13	10.7573
1499	39.96	10	10.5306
1500	39.98	11	10.3318
1501	40	12	10.1565
1502	40.02	12	10.0011
1503	40.04	8	8.8882
1504	40.06	9	8.82851
1505	40.08	10	8.97079
1506	40.1	9	8.93804
1507	40.12	8	8.91181
1508	40.14	11	8.40427
1509	40.16	10	8.42243
1510	40.18	9	8.53833
1511	40.2	10	8.57008
1512	40.22	10	8.60684
1513	40.24	7	8.64962
1514	40.26	9	8.6998
1515	40.28	10	8.75925
1516	40.3	11	8.83068
1517	40.32	12	8.91826
1518	40.34	11	9.02858
1519	40.36	10	9.17199
1520	40.38	13	9.36435
1521	40.4	10	9.62866
1522	40.42	13	9.99668
1523	40.44	10	10.5106
1524	40.46	11	11.2317
1525	40.48	17	12.2665
1526	40.5	14	13.8169
1527	40.52	21	16.2115
1528	40.54	24	19.8225
1529	40.56	30	24.8335
1530	40.58	35	30.9628
1531	40.6	41	36.964
1532	40.62	49	39.9119
1533	40.64	38	37.5018
1534	40.66	36	32.355
1535	40.68	28	28.3527
1536	40.7	33	26.5863
1537	40.72	36	25.6557
1538	40.74	27	23.2844
1539	40.76	25	19.4438
1540	40.78	17	15.6342
1541	40.8	12	12.9014
1542	40.82	11	11.2623
1543	40.84	10	10.3825
1544	40.86	10	9.97632
1545	40.88	10	9.73281
1546	40.9	11	9.58422
1547	40.92	10	9.47692
1548	40.94	12	9.38876
1549	40.96	8	9.31337
1550	40.98	9	9.25143
1551	41	10	9.20617
1552	41.02	11	9.18175
1553	41.04	9	9.1834
1554	41.06	10	9.21832
1555	41.08	11	9.29705
1556	41.1	9	9.43433
1557	41.12	9	9.6503
1558	41.14	11	9.97408
1559	41.16	10	10.4559
1560	41.18	12	11.1918
1561	41.2	11	12.1697
1562	41.22	14	13.9452
1563	41.24	15	16.4518
1564	41.26	21	19.5864
1565	41.28	29	22.7864
1566	41.3	31	24.5248
1567	41.32	32	23.5641
1568	41.34	20	20.8846
1569	41.36	17	18.6324
1570	41.38	14	17.5969
1571	41.4	18	17.2219
1572	41.42	21	16.2715
1573	41.44	16	14.3477
1574	41.46	18	12.2827
1575	41.48	12	10.7163
1576	41.5	9	9.73937
1577	41.52	10	9.1991
1578	41.54	12	8.91357
1579	41.56	11	8.75609
1580	41.58	10	8.65736
1581	41.6	8	8.58371
1582	41.62	9	8.5203
1583	41.64	11	8.46187
1584	41.66	10	8.40746
1585	41.68	8	8.35754
1586	41.7	11	8.3126
1587	41.72	9	8.27277
1588	41.74	7	8.23777
1589	41.76	9	8.20711
1590	41.78	10	8.18022
1591	41.8	11	8.15653
1592	41.82	10	8.13555
1593	41.84	10	8.11685
1594	41.86	9	8.10008
1595	41.88	7	7.99265
1596	41.9	11	7.985
1597	41.92	12	7.97799
1598	41.94	11	7.97153
1599	41.96	10	7.96554
1600	41.98	7	7.91293
1601	42	8	7.91083
1602	42.02	11	7.90874
1603	42.04	9	7.90666
1604	42.06	9	7.9046
1605	42.08	8	7.90254
1606	42.1	8	7.9005
1607	42.12	6	7.89847
1608	42.14	5	7.89645
1609	42.16	8	7.89443
1610	42.18	9	7.89244
1611	42.2	7	7.89045
1612	42.22	9	7.88847
1613	42.24	11	7.8865
1614	42.26	10	7.88455
1615	42.28	11	7.8826
1616	42.3	7	7.88067
1617	42.32	6	7.87875
1618	42.34	11	7.87684
1619	42.36	10	7.87494
1620	42.38	9	7.87305
1621	42.4	6	7.87117
1622	42.42	7	7.8693
1623	42.44	8	7.86744
1624	42.46	9	7.86559
1625	42.48	7	7.86376
1626	42.5	8	7.86193
1627	42.52	9	7.86012
1628	42.54	8	7.85832
1629	42.56	9	7.85652
1630	42.58	11	7.85474
1631	42.6	12	7.85297
1632	42.62	11	7.85121
1633	42.64	9	7.84946
1634	42.66	10	7.84772
1635	42.68	9	7.84599
1636	42.7	11	7.84427
1637	42.72	8	7.84256
1638	42.74	5	7.84086
1639	42.76	7	7.83918
1640	42.78	8	7.8375
1641	42.8	10	7.83583
1642	42.82	9	7.83417
1643	42.84	11	7.83253
1644	42.86	7	7.83089
1645	42.88	9	7.82927
1646	42.9	11	7.82765
1647	42.92	10	7.82604
1648	42.94	8	7.82445
1649	42.96	9	7.82286
1650	42.98	10	7.82129
1651	43	10	7.81972
1652	43.02	9	7.81817
1653	43.04	11	7.81663
1654	43.06	11	7.81509
1655	43.08	12	7.81357
1656	43.1	11	7.81205
1657	43.12	9	7.81055
1658	43.14	7	7.80906
1659	43.16	8	7.80757
1660	43.18	10	7.8061
1661	43.2	9	7.80463
1662	43.22	10	7.80318
1663	43.24	11	7.80173
1664	43.26	8	7.8003
1665	43.28	9	7.79887
1666	43.3	6	7.79746
1667	43.32	8	7.79605
1668	43.34	11	14.785
1669	43.36	21	15.3125
1670	43.38	20	15.9021
1671	43.4	20	16.5637
1672	43.42	24	17.3099
1673	43.44	22	18.1553
1674	43.46	25	22.6403
1675	43.48	26	24.0126
1676	43.5	31	29.9647
1677	43.52	34	32.1194
1678	43.54	35	34.6164
1679	43.56	36	37.5433
1680	43.58	42	41.0299
1681	43.6	51	45.2722
1682	43.62	49	52.7794
1683	43.64	64	59.7885
1684	43.66	71	69.0555
1685	43.68	82	81.5755
1686	43.7	98	98.6868
1687	43.72	119	122.21
1688	43.74	156	155.01
1689	43.76	189	202.333
1690	43.78	268	273.628
1691	43.8	346	382.286
1692	43.82	510	540.361
1693	43.84	749	749.341
1694	43.86	978	986.631
1695	43.88	1178	1175.6
1696	43.9	1201	1195.67
1697	43.92	1035	1057.24
1698	43.94	894	921.352
1699	43.96	871	893.136
1700	43.98	1001	976.574
1701	44	1222	1100.17
1702	44.02	1241	1156.92
1703	44.04	1121	1088.85
1704	44.06	884	904.402
1705	44.08	649	690.303
1706	44.1	519	537.312
1707	44.12	474	466.101
1708	44.14	495	446.584
1709	44.16	421	420.639
1710	44.18	359	349.651
1711	44.2	259	258.234
1712	44.22	186	181.379
1713	44.24	130	129.26
1714	44.26	99	97.786
1715	44.28	78	79.4792
1716	44.3	69	68.3798
1717	44.32	60	60.9444
1718	44.34	54	55.3311
1719	44.36	45	50.6535
1720	44.38	41	46.5292
1721	44.4	37	42.8229
1722	44.42	37	39.4954
1723	44.44	34	37.5919
1724	44.46	31	28.416
1725	44.48	28	26.6517
1726	44.5	25	25.1384
1727	44.52	24	23.8458
1728	44.54	21	22.7458
1729	44.56	21	22.3418
1730	44.58	21	18.3616
1731	44.6	20	17.9746
1732	44.62	18	13.7739
1733	44.64	15	13.8674
1734	44.66	19	14.0542
1735	44.68	15	14.3528
1736	44.7	17	14.7948
1737	44.72	17	13.3769
1738	44.74	14	14.4305
1739	44.76	21	15.8675
1740	44.78	16	19.5787
1741	44.8	26	22.4688
1742	44.82	31	26.47
1743	44.84	33	32.1502
1744	44.86	42	40.5706
1745	44.88	54	53.4222
1746	44.9	67	73.4403
1747	44.92	89	99.9265
1748	44.94	119	132.079
1749	44.96	161	162.341
1750	44.98	178	173.68
1751	45	154	156.518
1752	45.02	117	128.46
1753	45.04	99	109.098
1754	45.06	103	103.446
1755	45.08	107	105.865
1756	45.1	105	104.171
1757	45.12	101	91.4732
1758	45.14	78	75.3222
1759	45.16	63	64.3749
1760	45.18	60	61.5262
1761	45.2	59	67.1491
1762	45.22	80	81.9702
1763	45.24	105	107.816
1764	45.26	138	146.216
1765	45.28	197	195.875
1766	45.3	245	248.189
1767	45.32	268	279.162
1768	45.34	249	262.833
1769	45.36	197	215.485
1770	45.38	172	174.461
1771	45.4	155	155.692
1772	45.42	155	154.788
1773	45.44	171	154.005
1774	45.46	153	134.879
1775	45.48	102	101.794
1776	45.5	74	70.787
1777	45.52	44	48.8951
1778	45.54	29	34.6853
1779	45.56	27	27.4073
1780	45.58	29	23.4202
1781	45.6	25	21.0827
1782	45.62	21	19.5162
1783	45.64	17	18.2939
1784	45.66	17	16.7456
1785	45.68	15	15.8145
1786	45.7	15	14.9667
1787	45.72	14	14.2057
1788	45.74	15	13.5332
1789	45.76	12	12.9458
1790	45.78	13	12.4361
1791	45.8	11	11.9942
1792	45.82	10	11.6103
1793	45.84	10	11.2754
1794	45.86	10	10.9817
1795	45.88	13	10.7229
1796	45.9	9	8.92376
1797	45.92	8	8.82276
1798	45.94	11	8.73355
1799	45.96	10	8.65436
1800	45.98	9	8.58375
1801	46	7	8.52052
1802	46.02	9	7.68696
1803	46.04	8	7.68668
1804	46.06	9	7.68641
1805	46.08	8	7.68615
1806	46.1	8	7.6859
1807	46.12	9	7.68565
1808	46.14	11	7.68541
1809	46.16	8	7.68518
1810	46.18	10	7.68495
1811	46.2	8	7.68473
1812	46.22	9	7.68451
1813	46.24	8	7.6843
1814	46.26	9	7.6841
1815	46.28	7	7.68391
1816	46.3	7	7.68372
1817	46.32	6	7.68354
1818	46.34	8	7.68337
1819	46.36	10	7.6832
1820	46.38	9	7.68304
1821	46.4	10	7.68289
1822	46.42	8	7.68274
1823	46.44	10	7.6826
1824	46.46	10	7.68247
1825	46.48	11	7.68234
1826	46.5	12	7.68222
1827	46.52	10	7.6821
1828	46.54	14	7.68199
1829	46.56	12	7.68189
1830	46.58	10	7.6818
1831	46.6	11	7.68171
1832	46.62	8	7.68162
1833	46.64	9	7.68155
1834	46.66	9	7.68148
1835	46.68	10	7.68141
1836	46.7	11	7.68136
1837	46.72	10	7.6813
1838	46.74	8	7.68126
1839	46.76	13	7.68122
1840	46.78	11	7.68119
1841	46.8	7	7.68116
1842	46.82	9	7.68114
1843	46.84	10	7.68113
1844	46.86	11	7.68112
1845	46.88	8	7.68112
1846	46.9	9	7.68113
1847	46.92	10	7.68114
1848	46.94	8	7.68116
1849	46.96	6	7.68118
1850	46.98	9	7.68121
1851	47	8	7.68124
1852	47.02	9	7.68128
1853	47.04	7	7.68133
1854	47.06	6	7.68138
1855	47.08	9	7.68144
1856	47.1	8	7.68151
1857	47.12	9	7.68158
1858	47.14	8	7.68166
1859	47.16	9	7.68174
1860	47.18	10	7.68183
1861	47.2	9	7.68192
1862	47.22	6	7.68202
1863	47.24	9	7.68213
1864	47.26	10	7.68224
1865	47.28	11	7.68236
1866	47.3	10	7.77857
1867	47.32	7	7.78606
1868	47.34	9	7.79444
1869	47.36	7	7.80384
1870	47.38	9	7.81445
1871	47.4	9	7.82647
1872	47.42	7	7.8866
1873	47.44	8	7.90583
1874	47.46	9	7.92791
1875	47.48	10	7.95346
1876	47.5	8	7.98333
1877	47.52	7	8.01872
1878	47.54	9	8.06142
1879	47.56	7	8.11419
1880	47.58	8	8.18139
1881	47.6	10	8.26969
1882	47.62	12	8.38888
1883	47.64	12	8.55257
1884	47.66	9	8.77895
1885	47.68	10	9.09337
1886	47.7	11	9.5373
1887	47.72	8	10.1876
1888	47.74	12	11.1762
1889	47.76	10	12.6732
1890	47.78	15	14.8081
1891	47.8	18	17.5417
1892	47.82	20	20.4059
1893	47.84	21	22.0385
1894	47.86	20	21.0263
1895	47.88	19	18.3603
1896	47.9	14	16.2454
1897	47.92	12	15.2257
1898	47.94	15	15.2877
1899	47.96	21	15.6262
1900	47.98	20	15.1124
1901	48	10	13.5444
1902	48.02	11	11.8807
1903	48.04	10	10.5656
1904	48.06	9	10.1813
1905	48.08	10	9.76995
1906	48.1	11	9.58885
1907	48.12	11	9.53634
1908	48.14	10	9.55691
1909	48.16	9	9.62602
1910	48.18	10	9.7382
1911	48.2	13	10.1234
1912	48.22	11	10.3697
1913	48.24	10	10.7096
1914	48.26	12	11.1766
1915	48.28	12	11.8174
1916	48.3	11	12.7067
1917	48.32	13	13.9803
1918	48.34	22	15.8709
1919	48.36	21	18.6886
1920	48.38	20	22.6984
1921	48.4	31	27.917
1922	48.42	40	33.6324
1923	48.44	45	37.8424
1924	48.46	39	38.2091
1925	48.48	37	36.5571
1926	48.5	42	36.8977
1927	48.52	44	41.4963
1928	48.54	51	50.7455
1929	48.56	67	63.4763
1930	48.58	75	75.9246
1931	48.6	80	81.7579
1932	48.62	74	75.4019
1933	48.64	57	61.2252
1934	48.66	45	48.8676
1935	48.68	41	42.6283
1936	48.7	47	41.9818
1937	48.72	50	43.6384
1938	48.74	45	42.4133
1939	48.76	41	36.0076
1940	48.78	38	27.9044
1941	48.8	19	21.37
1942	48.82	20	17.1392
1943	48.84	18	14.7718
1944	48.86	15	13.6301
1945	48.88	17	13.4289
1946	48.9	15	13.584
1947	48.92	15	14.1109
1948	48.94	15	14.8343
1949	48.96	13	15.3481
1950	48.98	14	15.0497
1951	49	15	14.0232
1952	49.02	13	12.8853
1953	49.04	11	12.2438
1954	49.06	13	12.0622
1955	49.08	17	12.1454
1956	49.1	13	12.1192
1957	49.12	9	11.7171
1958	49.14	12	11.0295
1959	49.16	11	10.53
1960	49.18	10	9.85057
1961	49.2	13	9.80361
1962	49.22	11	9.93275
1963	49.24	10	10.2237
1964	49.26	13	10.6897
1965	49.28	12	11.3787
1966	49.3	11	12.1923
1967	49.32	13	13.7486
1968	49.34	17	16.1238
1969	49.36	21	19.6122
1970	49.38	27	24.3107
1971	49.4	30	32.5038
1972	49.42	36	37.1222
1973	49.44	40	37.6335
1974	49.46	35	34.0871
1975	49.48	27	30.283
1976	49.5	24	28.6481
1977	49.52	30	30.5319
1978	49.54	33	32.012
1979	49.56	35	32.3533
1980	49.58	33	30.4528
1981	49.6	28	27.5621
1982	49.62	31	25.4779
1983	49.64	25	24.7945
1984	49.66	28	25.2206
1985	49.68	28	26.3508
1986	49.7	27	28.1739
1987	49.72	31	31.1299
1988	49.74	29	35.7
1989	49.76	43	42.4106
1990	49.78	45	52.0135
1991	49.8	59	65.8972
1992	49.82	78	86.6558
1993	49.84	109	118.341
1994	49.86	159	165.391
1995	49.88	236	229.993
1996	49.9	315	307.63
1997	49.92	359	375.945
1998	49.94	379	388.981
1999	49.96	303	332.612
2000	49.98	229	258.003
2001	50	207	208.412
2002	50.02	201	193.622
2003	50.04	226	203.578
2004	50.06	217	214.41
2005	50.08	207	197.264
2006	50.1	178	153.032
2007	50.12	116	107.057
2008	50.14	75	73.0195
2009	50.16	52	51.871
2010	50.18	41	39.7474
2011	50.2	34	32.7796
2012	50.22	31	28.5504
2013	50.24	30	25.766
2014	50.26	25	23.7677
2015	50.28	21	22.1779
2016	50.3	19	20.7893
2017	50.32	20	19.4554
2018	50.34	21	18.1492
2019	50.36	15	16.9583
2020	50.38	15	15.9375
2021	50.4	15	15.0829
2022	50.42	15	14.3678
2023	50.44	14	13.7625
2024	50.46	15	13.2431
2025	50.48	11	12.7919
2026	50.5	10	9.91678
2027	50.52	10	9.73226
2028	50.54	10	9.57041
2029	50.56	10	9.42767
2030	50.58	14	9.30116
2031	50.6	10	9.18862
2032	50.62	10	9.08815
2033	50.64	9	7.79775
2034	50.66	11	7.7961
2035	50.68	5	7.79478
2036	50.7	10	7.79375
2037	50.72	10	7.79295
2038	50.74	10	7.78312
2039	50.76	10	7.78332
2040	50.78	10	7.78361
2041	50.8	11	7.78396
2042	50.82	9	7.78439
2043	50.84	8	7.78486
2044	50.86	9	7.78539
2045	50.88	9	7.78147
2046	50.9	10	7.78236
2047	50.92	8	7.78327
2048	50.94	9	8.21449
2049	50.96	8	8.24887
2050	50.98	7	8.2873
2051	51	9	8.33045
2052	51.02	8	8.37914
2053	51.04	9	8.4344
2054	51.06	8	8.49746
2055	51.08	9	8.7847
2056	51.1	8	8.88535
2057	51.12	11	9.00216
2058	51.14	10	9.13921
2059	51.16	10	9.30236
2060	51.18	10	9.50048
2061	51.2	11	9.74727
2062	51.22	10	10.064
2063	51.24	13	10.4828
2064	51.26	12	11.0501
2065	51.28	11	11.8291
2066	51.3	15	12.904
2067	51.32	15	14.3971
2068	51.34	20	16.5168
2069	51.36	20	19.6449
2070	51.38	25	24.3863
2071	51.4	29	31.4424
2072	51.42	40	41.2331
2073	51.44	54	53.2342
2074	51.46	69	64.3014
2075	51.48	74	67.3112
2076	51.5	55	59.0702
2077	51.52	49	47.0947
2078	51.54	40	38.64
2079	51.56	31	35.6101
2080	51.58	44	36.9023
2081	51.6	41	39.4929
2082	51.62	39	38.7301
2083	51.64	35	32.853
2084	51.66	25	25.3986
2085	51.68	19	19.3951
2086	51.7	16	15.4593
2087	51.72	11	13.1523
2088	51.74	14	11.8606
2089	51.76	10	11.1212
2090	51.78	10	10.6584
2091	51.8	11	10.3273
2092	51.82	9	10.0587
2093	51.84	10	9.82408
2094	51.86	8	9.61411
2095	51.88	10	9.42672
2096	51.9	8	9.26134
2097	51.92	11	9.11703
2098	51.94	9	8.99196
2099	51.96	11	8.8838
2100	51.98	10	8.79014
2101	52	12	8.70872
2102	52.02	9	8.63761
2103	52.04	10	8.17985
2104	52.06	8	8.15125
2105	52.08	9	8.12631
2106	52.1	9	8.10448
2107	52.12	8	8.08528
2108	52.14	9	8.06832
2109	52.16	11	8.05329
2110	52.18	9	7.84533
2111	52.2	9	7.84639
2112	52.22	11	7.84745
2113	52.24	10	7.84851
2114	52.26	10	7.84958
2115	52.28	8	7.85065
2116	52.3	9	7.85172
2117	52.32	7	7.8528
2118	52.34	8	7.85387
2119	52.36	9	7.85495
2120	52.38	8	7.85603
2121	52.4	11	7.85711
2122	52.42	9	7.85819
2123	52.44	10	7.85928
2124	52.46	8	7.86037
2125	52.48	11	7.86146
2126	52.5	9	7.86255
2127	52.52	11	7.86364
2128	52.54	8	7.86474
2129	52.56	9	7.86583
2130	52.58	8	7.86693
2131	52.6	9	7.86803
2132	52.62	7	7.86914
2133	52.64	9	7.87024
2134	52.66	11	7.87135
2135	52.68	10	7.87246
2136	52.7	8	7.87357
2137	52.72	9	7.87467
2138	52.74	6	7.87579
2139	52.76	10	7.8769
2140	52.78	11	7.87802
2141	52.8	9	7.87914
2142	52.82	8	7.88026
2143	52.84	9	7.88138
2144	52.86	8	7.88251
2145	52.88	7	7.88363
2146	52.9	6	7.88476
2147	52.92	9	7.88589
2148	52.94	8	7.88702
2149	52.96	9	7.88815
2150	52.98	8	7.88928
2151	53	10	7.89042
2152	53.02	9	7.89156
2153	53.04	8	7.89269
2154	53.06	9	7.89384
2155	53.08	11	7.89498
2156	53.1	8	7.89612
2157	53.12	10	7.89726
2158	53.14	11	7.89841
2159	53.16	10	7.89956
2160	53.18	12	7.90071
2161	53.2	11	7.90186
2162	53.22	11	7.90301
2163	53.24	14	13.1519
2164	53.26	19	13.5611
2165	53.28	20	14.0197
2166	53.3	15	14.5357
2167	53.32	14	15.1194
2168	53.34	15	15.7829
2169	53.36	17	16.5416
2170	53.38	19	19.9661
2171	53.4	20	21.1747
2172	53.42	24	22.5786
2173	53.44	25	24.2268
2174	53.46	26	26.1899
2175	53.48	31	28.5732
2176	53.5	35	31.5397
2177	53.52	30	35.3414
2178	53.54	40	40.3585
2179	53.56	51	47.1366
2180	53.58	54	56.425
2181	53.6	68	69.2189
2182	53.62	79	86.9465
2183	53.64	94	112.013
2184	53.66	125	148.779
2185	53.68	186	204.216
2186	53.7	276	290.474
2187	53.72	401	405.543
2188	53.74	544	547.921
2189	53.76	713	681.011
2190	53.78	719	718.877
2191	53.8	612	620.6
2192	53.82	479	474.981
2193	53.84	372	371.133
2194	53.86	325	329.387
2195	53.88	366	341.977
2196	53.9	409	381.593
2197	53.92	466	398.916
2198	53.94	371	352.258
2199	53.96	281	267.287
2200	53.98	196	190.367
2201	54	151	138.23
2202	54.02	126	108.955
2203	54.04	104	95.9547
2204	54.06	103	93.6841
2205	54.08	100	99.0802
2206	54.1	111	111.44
2207	54.12	129	132.38
2208	54.14	169	166.026
2209	54.16	194	218.331
2210	54.18	288	294.526
2211	54.2	406	394.362
2212	54.22	532	500.329
2213	54.24	557	557.324
2214	54.26	544	510.059
2215	54.28	421	400.063
2216	54.3	295	304.813
2217	54.32	249	255.728
2218	54.34	241	246.692
2219	54.36	295	272.102
2220	54.38	300	296.366
2221	54.4	286	279.567
2222	54.42	260	220.266
2223	54.44	175	159.602
2224	54.46	125	110.54
2225	54.48	98	76.9282
2226	54.5	61	59.0998
2227	54.52	50	49.2605
2228	54.54	52	43.7561
2229	54.56	48	40.469
2230	54.58	43	40.4676
2231	54.6	41	39.1049
2232	54.62	42	38.2097
2233	54.64	41	37.7557
2234	54.66	41	37.7867
2235	54.68	50	38.3869
2236	54.7	50	48.4498
2237	54.72	52	51.3235
2238	54.74	61	55.4879
2239	54.76	61	61.408
2240	54.78	71	69.7242
2241	54.8	83	81.2991
2242	54.82	98	93.8982
2243	54.84	119	121.052
2244	54.86	166	154.783
2245	54.88	216	204.982
2246	54.9	285	278.609
2247	54.92	401	380.069
2248	54.94	541	504.008
2249	54.96	696	614.298
2250	54.98	710	640.283
2251	55	576	556.321
2252	55.02	451	443.76
2253	55.04	366	371.725
2254	55.06	361	358.045
2255	55.08	431	396.437
2256	55.1	521	469.126
2257	55.12	571	543.101
2258	55.14	674	590.767
2259	55.16	714	642.559
2260	55.18	711	750.413
2261	55.2	897	929.448
2262	55.22	1110	1137.81
2263	55.24	1196	1241.63
2264	55.26	1064	1118.77
2265	55.28	863	867.87
2266	55.3	605	655.997
2267	55.32	522	547.007
2268	55.34	533	536.692
2269	55.36	631	592.92
2270	55.38	647	654.129
2271	55.4	639	630.315
2272	55.42	464	505.284
2273	55.44	402	358.331
2274	55.46	251	243.751
2275	55.48	163	169.381
2276	55.5	131	125.557
2277	55.52	112	100.671
2278	55.54	96	82.1845
2279	55.56	84	73.5422
2280	55.58	71	67.8002
2281	55.6	64	63.816
2282	55.62	62	61.2516
2283	55.64	64	60.2612
2284	55.66	61	61.3977
2285	55.68	71	65.5579
2286	55.7	74	71.7813
2287	55.72	86	84.5923
2288	55.74	101	100.693
2289	55.76	126	113.917
2290	55.78	114	112.757
2291	55.8	96	87.5538
2292	55.82	71	68.5807
2293	55.84	61	55.8483
2294	55.86	60	51.0644
2295	55.88	52	52.776
2296	55.9	61	57.8222
2297	55.92	71	60.3858
2298	55.94	58	54.786
2299	55.96	43	39.7097
2300	55.98	41	29.5025
2301	56	35	22.2479
2302	56.02	20	17.7643
2303	56.04	21	15.1823
2304	56.06	19	13.7237
2305	56.08	16	12.8367
2306	56.1	16	12.2418
2307	56.12	12	11.7899
2308	56.14	13	11.4133
2309	56.16	11	11.086
2310	56.18	17	10.8005
2311	56.2	9	10.5558
2312	56.22	11	10.3685
2313	56.24	12	10.2082
2314	56.26	11	10.091
2315	56.28	15	10.0191
2316	56.3	12	9.9976
2317	56.32	10	10.0377
2318	56.34	12	9.54968
2319	56.36	11	9.83884
2320	56.38	12	10.3036
2321	56.4	13	10.9637
2322	56.42	9	11.7991
2323	56.44	10	12.5868
2324	56.46	10	12.7922
2325	56.48	14	12.1619
2326	56.5	11	10.9466
2327	56.52	10	10.284
2328	56.54	14	10.004
2329	56.56	12	10.065
2330	56.58	13	10.3485
2331	56.6	11	10.6275
2332	56.62	10	10.5892
2333	56.64	12	10.224
2334	56.66	10	9.84936
2335	56.68	14	9.67146
2336	56.7	11	9.73084
2337	56.72	10	9.98888
2338	56.74	11	10.3302
2339	56.76	9	10.4859
2340	56.78	8	10.2369
2341	56.8	11	9.84119
2342	56.82	10	9.45344
2343	56.84	13	9.249
2344	56.86	9	9.22067
2345	56.88	11	9.31871
2346	56.9	10	9.45148
2347	56.92	10	9.46043
2348	56.94	12	9.27417
2349	56.96	11	9.05455
2350	56.98	8	8.8502
2351	57	7	8.72235
2352	57.02	9	8.62754
2353	57.04	7	8.60876
2354	57.06	6	8.61891
2355	57.08	10	8.65096
2356	57.1	11	8.70404
2357	57.12	10	8.81017
2358	57.14	8	8.92416
2359	57.16	10	9.08464
2360	57.18	9	9.29513
2361	57.2	9	9.61414
2362	57.22	10	10.0729
2363	57.24	10	10.7483
2364	57.26	11	11.755
2365	57.28	10	13.1511
2366	57.3	16	14.9352
2367	57.32	20	16.8572
2368	57.34	21	18.1275
2369	57.36	27	17.5912
2370	57.38	19	15.6596
2371	57.4	17	13.7911
2372	57.42	14	12.7046
2373	57.44	11	12.4477
2374	57.46	10	12.818
2375	57.48	15	13.4798
2376	57.5	14	13.8583
2377	57.52	14	13.3783
2378	57.54	11	12.3724
2379	57.56	12	11.5333
2380	57.58	10	11.1524
2381	57.6	10	11.2358
2382	57.62	12	11.6677
2383	57.64	13	12.1778
2384	57.66	11	12.2628
2385	57.68	10	11.6793
2386	57.7	13	10.8653
2387	57.72	8	10.2495
2388	57.74	9	9.94748
2389	57.76	8	9.92581
2390	57.78	10	10.0962
2391	57.8	10	10.2942
2392	57.82	7	10.3002
2393	57.84	9	9.93926
2394	57.86	10	9.48119
2395	57.88	8	9.11547
2396	57.9	10	8.87315
2397	57.92	11	8.6612
2398	57.94	10	8.58228
2399	57.96	10	8.53837
2400	57.98	14	8.59308
2401	58	13	8.58451
2402	58.02	9	8.58169
2403	58.04	9	8.58603
2404	58.06	8	8.59617
2405	58.08	9	8.58039
2406	58.1	10	8.60781
2407	58.12	10	8.64596
2408	58.14	7	8.72695
2409	58.16	9	8.80172
2410	58.18	8	8.90394
2411	58.2	9	9.04347
2412	58.22	9	9.20935
2413	58.24	8	9.47948
2414	58.26	7	9.86992
2415	58.28	10	10.4458
2416	58.3	11	11.2801
2417	58.32	15	12.4162
2418	58.34	14	13.7727
2419	58.36	17	14.9027
2420	58.38	15	15.0185
2421	58.4	10	14.2644
2422	58.42	10	13.4321
2423	58.44	15	13.2301
2424	58.46	10	13.8385
2425	58.48	19	15.2338
2426	58.5	18	17.1963
2427	58.52	19	18.9683
2428	58.54	21	19.1115
2429	58.56	14	17.2976
2430	58.58	14	14.9281
2431	58.6	13	13.1819
2432	58.62	10	12.3014
2433	58.64	16	12.1578
2434	58.66	14	12.5156
2435	58.68	11	13.0042
2436	58.7	14	13.0396
2437	58.72	10	12.382
2438	58.74	12	11.5137
2439	58.76	10	10.8666
2440	58.78	10	10.5455
2441	58.8	12	10.5235
2442	58.82	10	10.7705
2443	58.84	10	11.3059
2444	58.86	11	12.2027
2445	58.88	10	13.5504
2446	58.9	15	15.3737
2447	58.92	18	17.4156
2448	58.94	19	18.6591
2449	58.96	19	17.9832
2450	58.98	17	15.8862
2451	59	15	13.8878
2452	59.02	10	12.685
2453	59.04	13	12.3224
2454	59.06	12	12.6289
2455	59.08	12	13.3158
2456	59.1	15	13.736
2457	59.12	14	13.3425
2458	59.14	13	12.179
2459	59.16	13	10.9717
2460	59.18	10	10.0782
2461	59.2	9	9.51023
2462	59.22	8	9.17578
2463	59.24	9	8.98222
2464	59.26	9	10.3275
2465	59.28	10	10.3675
2466	59.3	11	10.441
2467	59.32	10	10.5408
2468	59.34	10	10.666
2469	59.36	12	10.8185
2470	59.38	10	11.0021
2471	59.4	13	11.2222
2472	59.42	11	12.2113
2473	59.44	13	12.5819
2474	59.46	13	13.0232
2475	59.48	13	13.5539
2476	59.5	14	14.2023
2477	59.52	17	14.9403
2478	59.54	15	15.9813
2479	59.56	18	17.3491
2480	59.58	19	19.1865
2481	59.6	23	21.6884
2482	59.62	27	25.114
2483	59.64	31	29.8272
2484	59.66	30	36.4177
2485	59.68	35	45.8887
2486	59.7	47	59.982
2487	59.72	69	80.7579
2488	59.74	110	109.943
2489	59.76	157	146.863
2490	59.78	191	182.571
2491	59.8	196	193.968
2492	59.82	165	168.262
2493	59.84	125	128.023
2494	59.86	78	96.6197
2495	59.88	71	80.7209
2496	59.9	80	79.0407
2497	59.92	92	87.9976
2498	59.94	107	101.558
2499	59.96	109	107.768
2500	59.98	89	95.983
2501	60	75	73.3574
2502	60.02	57	52.4882
2503	60.04	41	37.7904
2504	60.06	31	28.8231
2505	60.08	28	23.5061
2506	60.1	24	20.4152
2507	60.12	21	18.5181
2508	60.14	18	17.2282
2509	60.16	17	16.2438
2510	60.18	15	15.4249
2511	60.2	15	14.7152
2512	60.22	12	14.1701
2513	60.24	15	13.6387
2514	60.26	11	13.1867
2515	60.28	13	12.8091
2516	60.3	12	12.5006
2517	60.32	16	12.2568
2518	60.34	13	12.0758
2519	60.36	10	10.5843
2520	60.38	11	10.6333
2521	60.4	10	10.7594
2522	60.42	13	10.9842
2523	60.44	11	11.3383
2524	60.46	10	11.8694
2525	60.48	14	12.6612
2526	60.5	10	13.8574
2527	60.52	16	15.6646
2528	60.54	21	17.6512
2529	60.56	24	21.2422
2530	60.58	30	25.306
2531	60.6	34	28.014
2532	60.62	30	26.9783
2533	60.64	24	22.9784
2534	60.66	18	19.035
2535	60.68	15	16.5712
2536	60.7	14	15.7063
2537	60.72	15	16.1522
2538	60.74	17	17.4702
2539	60.76	21	18.8072
2540	60.78	17	18.7546
2541	60.8	15	16.8499
2542	60.82	14	14.4296
2543	60.84	10	12.4976
2544	60.86	10	11.2289
2545	60.88	11	10.4782
2546	60.9	10	10.0594
2547	60.92	10	9.83329
2548	60.94	9	9.71683
2549	60.96	8	9.66809
2550	60.98	9	9.67108
2551	61	9	9.72562
2552	61.02	7	9.843
2553	61.04	9	10.0478
2554	61.06	8	10.3842
2555	61.08	11	10.917
2556	61.1	10	11.7172
2557	61.12	13	12.8217
2558	61.14	15	14.1165
2559	61.16	16	15.0591
2560	61.18	15	14.6751
2561	61.2	14	13.4055
2562	61.22	10	12.0698
2563	61.24	11	11.1925
2564	61.26	12	10.8379
2565	61.28	11	10.9209
2566	61.3	11	11.3132
2567	61.32	10	11.7796
2568	61.34	12	11.8003
2569	61.36	10	11.2697
2570	61.38	11	10.474
2571	61.4	12	9.79776
2572	61.42	9	9.33793
2573	61.44	12	9.05708
2574	61.46	11	8.93749
2575	61.48	9	8.84462
2576	61.5	8	8.78802
2577	61.52	9	8.75011
2578	61.54	9	8.72201
2579	61.56	8	8.69973
2580	61.58	9	8.68172
2581	61.6	8	8.66755
2582	61.62	10	8.65713
2583	61.64	11	8.67297
2584	61.66	9	8.67189
2585	61.68	7	8.67497
2586	61.7	8	8.68256
2587	61.72	8	8.69538
2588	61.74	9	8.6676
2589	61.76	8	8.69842
2590	61.78	8	8.74052
2591	61.8	10	8.79844
2592	61.82	9	8.87834
2593	61.84	7	8.98847
2594	61.86	5	9.14061
2595	61.88	11	9.354
2596	61.9	12	9.63821
2597	61.92	10	10.703
2598	61.94	12	11.4161
2599	61.96	13	12.3936
2600	61.98	15	13.5963
2601	62	16	14.6844
2602	62.02	14	14.9142
2603	62.04	15	14.0709
2604	62.06	10	12.9403
2605	62.08	11	12.1447
2606	62.1	10	12.1322
2607	62.12	12	12.2616
2608	62.14	11	12.7311
2609	62.16	11	13.4052
2610	62.18	14	13.9841
2611	62.2	15	14.1095
2612	62.22	14	13.9184
2613	62.24	13	13.8623
2614	62.26	14	14.1891
2615	62.28	15	14.9833
2616	62.3	16	16.3053
2617	62.32	17	18.2627
2618	62.34	21	21.0755
2619	62.36	25	25.1642
2620	62.38	29	31.2113
2621	62.4	40	40.0844
2622	62.42	55	52.4963
2623	62.44	72	68.0831
2624	62.46	80	82.6463
2625	62.48	87	86.1066
2626	62.5	67	74.2209
2627	62.52	49	57.1929
2628	62.54	38	44.1521
2629	62.56	32	37.3566
2630	62.58	40	36.149
2631	62.6	41	39.3801
2632	62.62	48	45.2607
2633	62.64	51	49.9841
2634	62.66	47	48.0326
2635	62.68	40	39.5537
2636	62.7	31	30.1693
2637	62.72	25	23.0366
2638	62.74	20	18.4172
2639	62.76	15	15.6284
2640	62.78	21	14.0075
2641	62.8	15	13.0264
2642	62.82	12	12.3807
2643	62.84	14	11.9058
2644	62.86	10	11.5207
2645	62.88	12	11.19
2646	62.9	10	10.8995
2647	62.92	11	10.6441
2648	62.94	10	10.421
2649	62.96	10	10.2273
2650	62.98	10	10.0597
2651	63	9	9.91468
2652	63.02	7	9.78882
2653	63.04	9	9.08336
2654	63.06	9	9.84716
2655	63.08	10	9.86117
2656	63.1	11	9.88895
2657	63.12	8	9.93073
2658	63.14	10	9.98713
2659	63.16	11	10.0593
2660	63.18	10	10.1489
2661	63.2	12	10.2583
2662	63.22	10	10.1017
2663	63.24	10	10.6908
2664	63.26	11	10.9327
2665	63.28	13	11.2186
2666	63.3	11	11.5621
2667	63.32	10	11.9837
2668	63.34	15	12.5146
2669	63.36	15	13.2014
2670	63.38	20	18.6557
2671	63.4	17	20.2279
2672	63.42	23	22.2822
2673	63.44	25	24.9929
2674	63.46	29	28.6197
2675	63.48	32	33.5983
2676	63.5	38	40.6554
2677	63.52	51	50.8254
2678	63.54	59	65.2174
2679	63.56	81	86.6148
2680	63.58	98	108.393
2681	63.6	115	123.091
2682	63.62	97	118.609
2683	63.64	90	100.232
2684	63.66	74	82.9749
2685	63.68	67	73.7493
2686	63.7	61	73.298
2687	63.72	65	80.8044
2688	63.74	89	95.3474
2689	63.76	104	115.153
2690	63.78	128	135.515
2691	63.8	144	152.635
2692	63.82	159	173.539
2693	63.84	104	210.492
2694	63.86	274	272.3
2695	63.88	386	362.942
2696	63.9	506	474.604
2697	63.92	574	564.372
2698	63.94	591	557.064
2699	63.96	463	452.071
2700	63.98	332	332.333
2701	64	238	248.48
2702	64.02	204	208.199
2703	64.04	214	205.222
2704	64.06	247	231.254
2705	64.08	287	274.751
2706	64.1	372	308.772
2707	64.12	324	294.195
2708	64.14	251	233.06
2709	64.16	184	165.882
2710	64.18	131	114.152
2711	64.2	87	81.11
2712	64.22	60	61.3703
2713	64.24	57	49.6972
2714	64.26	51	42.5325
2715	64.28	36	37.7971
2716	64.3	39	34.3139
2717	64.32	31	31.499
2718	64.34	30	29.0942
2719	64.36	25	26.6262
2720	64.38	24	24.8164
2721	64.4	22	23.3386
2722	64.42	21	22.038
2723	64.44	17	20.9021
2724	64.46	20	19.9452
2725	64.48	20	19.1476
2726	64.5	15	14.2053
2727	64.52	16	13.9747
2728	64.54	14	13.8565
2729	64.56	13	13.8656
2730	64.58	12	15.238
2731	64.6	15	15.6813
2732	64.62	18	16.3816
2733	64.64	17	17.4315
2734	64.66	21	18.9892
2735	64.68	23	19.1931
2736	64.7	25	22.7554
2737	64.72	32	27.7272
2738	64.74	41	34.0826
2739	64.76	49	41.0638
2740	64.78	52	43.9061
2741	64.8	47	40.8031
2742	64.82	34	34.6189
2743	64.84	31	29.3231
2744	64.86	29	26.4812
2745	64.88	28	26.1315
2746	64.9	26	27.9465
2747	64.92	32	31.5549
2748	64.94	38	36.1934
2749	64.96	43	40.1509
2750	64.98	44	42.2677
2751	65	45	44.1804
2752	65.02	51	48.6638
2753	65.04	59	57.8032
2754	65.06	75	73.1693
2755	65.08	97	95.8995
2756	65.1	128	125.071
2757	65.12	139	152.276
2758	65.14	143	157.936
2759	65.16	124	134.517
2760	65.18	88	101.713
2761	65.2	76	76.4359
2762	65.22	65	62.5679
2763	65.24	59	58.8769
2764	65.26	64	63.3261
2765	65.28	74	73.6973
2766	65.3	79	85.3458
2767	65.32	69	88.3552
2768	65.34	64	76.4291
2769	65.36	56	58.0699
2770	65.38	41	42.3513
2771	65.4	31	31.5389
2772	65.42	25	24.8251
2773	65.44	20	20.8259
2774	65.46	19	18.4244
2775	65.48	17	16.8932
2776	65.5	15	15.8171
2777	65.52	15	14.9802
2778	65.54	11	14.1581
2779	65.56	14	13.5566
2780	65.58	11	13.0284
2781	65.6	10	12.5663
2782	65.62	11	12.1642
2783	65.64	10	11.8156
2784	65.66	9	11.5139
2785	65.68	10	11.2523
2786	65.7	10	11.0246
2787	65.72	9	9.7226
2788	65.74	10	9.61874
2789	65.76	9	9.52857
2790	65.78	8	9.44998
2791	65.8	10	9.38121
2792	65.82	9	9.32089
2793	65.84	9	9.26802
2794	65.86	10	9.22158
2795	65.88	10	9.18035
2796	65.9	7	8.58972
2797	65.92	10	8.58896
2798	65.94	10	8.58698
2799	65.96	8	8.58538
2800	65.98	7	8.58464
2801	66	8	8.58472
2802	66.02	8	8.58547
2803	66.04	7	8.58673
2804	66.06	9	8.58827
2805	66.08	9	8.58946
2806	66.1	8	8.58953
2807	66.12	10	8.58875
2808	66.14	9	8.58795
2809	66.16	10	8.58752
2810	66.18	8	8.58744
2811	66.2	10	8.58761
2812	66.22	9	8.68118
2813	66.24	10	8.68864
2814	66.26	5	8.69696
2815	66.28	10	8.70627
2816	66.3	10	8.71671
2817	66.32	9	8.72848
2818	66.34	9	8.74182
2819	66.36	8	8.75703
2820	66.38	10	9.11597
2821	66.4	8	9.20684
2822	66.42	8	9.26261
2823	66.44	9	9.32662
2824	66.46	10	9.40082
2825	66.48	11	9.48794
2826	66.5	11	9.61339
2827	66.52	10	9.74203
2828	66.54	9	9.90192
2829	66.56	9	10.2682
2830	66.58	7	10.5405
2831	66.6	10	10.892
2832	66.62	10	11.3518
2833	66.64	12	11.9662
2834	66.66	10	12.8112
2835	66.68	12	14.0758
2836	66.7	15	15.7657
2837	66.72	17	18.0807
2838	66.74	20	20.9667
2839	66.76	22	23.7256
2840	66.78	27	24.9623
2841	66.8	25	24.6423
2842	66.82	25	24.5959
2843	66.84	26	26.2473
2844	66.86	28	30.221
2845	66.88	35	36.7871
2846	66.9	44	45.4035
2847	66.92	54	53.2043
2848	66.94	55	54.5098
2849	66.96	45	47.9606
2850	66.98	37	38.9544
2851	67	29	31.7045
2852	67.02	25	27.6826
2853	67.04	27	26.4692
2854	67.06	25	27.2081
2855	67.08	28	29.3793
2856	67.1	31	32.5181
2857	67.12	33	33.8726
2858	67.14	30	31.6014
2859	67.16	27	27.5337
2860	67.18	19	24.3008
2861	67.2	23	22.8168
2862	67.22	23	22.5969
2863	67.24	21	22.2319
2864	67.26	20	20.5829
2865	67.28	20	18.3002
2866	67.3	15	16.5708
2867	67.32	13	15.4811
2868	67.34	15	15.0034
2869	67.36	15	15.2113
2870	67.38	15	15.9349
2871	67.4	17	17.1008
2872	67.42	18	18.4764
2873	67.44	21	19.6685
2874	67.46	21	20.7999
2875	67.48	24	22.5735
2876	67.5	25	24.9849
2877	67.52	29	28.0092
2878	67.54	31	29.5522
2879	67.56	32	29.3475
2880	67.58	31	29.2828
2881	67.6	32	30.9049
2882	67.62	34	34.7233
2883	67.64	40	40.1106
2884	67.66	44	43.8478
2885	67.68	45	42.3405
2886	67.7	39	37.0238
2887	67.72	33	31.7887
2888	67.74	27	27.3852
2889	67.76	25	24.1215
2890	67.78	23	22.6235
2891	67.8	20	22.6511
2892	67.82	26	23.9844
2893	67.84	25	25.7777
2894	67.86	26	25.8242
2895	67.88	26	23.1076
2896	67.9	20	19.4174
2897	67.92	16	16.334
2898	67.94	15	14.2443
2899	67.96	12	13.0271
2900	67.98	13	12.284
2901	68	11	11.8422
2902	68.02	10	11.6361
2903	68.04	10	11.5653
2904	68.06	12	11.6052
2905	68.08	10	11.7811
2906	68.1	10	12.0907
2907	68.12	13	12.4998
2908	68.14	12	13.2722
2909	68.16	15	14.2959
2910	68.18	15	15.4159
2911	68.2	18	16.1973
2912	68.22	19	16.5943
2913	68.24	20	17.0211
2914	68.26	19	18.5452
2915	68.28	15	21.1259
2916	68.3	24	24.4409
2917	68.32	27	27.192
2918	68.34	30	27.1447
2919	68.36	24	24.5891
2920	68.38	21	21.876
2921	68.4	20	20.0687
2922	68.42	19	19.2898
2923	68.44	19	19.1441
2924	68.46	21	19.2291
2925	68.48	20	19.3069
2926	68.5	19	19.6357
2927	68.52	20	19.6028
2928	68.54	18	18.2878
2929	68.56	16	16.2201
2930	68.58	13	14.4855
2931	68.6	12	13.44
2932	68.62	12	12.9566
2933	68.64	11	12.6465
2934	68.66	10	12.1167
2935	68.68	12	11.4091
2936	68.7	10	10.781
2937	68.72	10	11.1078
2938	68.74	10	10.866
2939	68.76	10	10.7414
2940	68.78	11	10.6714
2941	68.8	11	10.6948
2942	68.82	9	10.7728
2943	68.84	10	10.909
2944	68.86	8	11.116
2945	68.88	11	11.4121
2946	68.9	12	11.6774
2947	68.92	10	12.5608
2948	68.94	13	13.0442
2949	68.96	12	13.259
2950	68.98	14	13.2941
2951	69	13	13.3987
2952	69.02	12	13.6997
2953	69.04	15	14.3371
2954	69.06	16	15.3268
2955	69.08	15	16.7507
2956	69.1	17	18.6584
2957	69.12	21	21.3374
2958	69.14	24	24.9195
2959	69.16	30	29.7593
2960	69.18	37	36.628
2961	69.2	51	46.5885
2962	69.22	71	60.5724
2963	69.24	101	78.2791
2964	69.26	161	94.6307
2965	69.28	127	97.8198
2966	69.3	106	83.6618
2967	69.32	76	63.988
2968	69.34	51	48.6475
2969	69.36	51	39.7239
2970	69.38	41	36.3885
2971	69.4	40	37.5357
2972	69.42	54	42.3658
2973	69.44	71	49.8039
2974	69.46	84	56.5041
2975	69.48	74	56.2602
2976	69.5	66	47.68
2977	69.52	44	36.775
2978	69.54	31	27.9682
2979	69.56	24	22.026
2980	69.58	16	18.3338
2981	69.6	21	16.1167
2982	69.62	16	14.7775
2983	69.64	21	13.9362
2984	69.66	16	13.3732
2985	69.68	11	12.9535
2986	69.7	11	12.5651
2987	69.72	11	12.1303
2988	69.74	16	11.6973
2989	69.76	11	11.3152
2990	69.78	11	11.0008
2991	69.8	12	10.7452
2992	69.82	10	10.5356
2993	69.84	9	10.3608
2994	69.86	8	9.50296
2995	69.88	10	9.42056
2996	69.9	10	9.34994
2997	69.92	9	9.2887
2998	69.94	9	9.23479
2999	69.96	9	9.18762
3000	69.98	9	9.1459
3001	70	10	9.10882
3002	70.02	9	9.07579
3003	70.04	9	9.04621
3004	70.06	9	8.67017
3005	70.08	8	8.66093
3006	70.1	8	8.66019
3007	70.12	9	8.65958
3008	70.14	10	8.65904
3009	70.16	10	8.6586
3010	70.18	8	8.65821
3011	70.2	8	8.65788
3012	70.22	9	8.65759
3013	70.24	9	8.65735
3014	70.26	8	8.65714
3015	70.28	9	8.65311
3016	70.3	9	8.6532
3017	70.32	8	8.6533
3018	70.34	9	8.65338
3019	70.36	9	8.65348
3020	70.38	9	8.65355
3021	70.4	8	8.65365
3022	70.42	9	8.65372
3023	70.44	9	8.65381
3024	70.46	9	8.65389
3025	70.48	9	8.65396
3026	70.5	9	8.65403
3027	70.52	9	8.65411
3028	70.54	8	8.65417
3029	70.56	8	8.65425
3030	70.58	8	8.65431
3031	70.6	9	8.65438
3032	70.62	9	8.65444
3033	70.64	9	8.65449
3034	70.66	9	8.65456
3035	70.68	9	8.6546
3036	70.7	9	8.65466
3037	70.72	8	8.65471
3038	70.74	9	8.65476
3039	70.76	8	8.6548
3040	70.78	9	8.65484
3041	70.8	8	8.65488
3042	70.82	8	8.65492
3043	70.84	8	8.65495
3044	70.86	9	8.655
3045	70.88	9	8.65502
3046	70.9	9	8.65506
3047	70.92	9	8.65509
3048	70.94	9	9.33521
3049	70.96	9	9.38547
3050	70.98	8	9.44304
3051	71	8	9.50585
3052	71.02	9	9.57642
3053	71.04	9	9.65611
3054	71.06	10	9.74652
3055	71.08	10	9.84972
3056	71.1	9	9.96817
3057	71.12	9	10.1051
3058	71.14	10	10.5952
3059	71.16	11	10.8075
3060	71.18	11	11.0601
3061	71.2	10	11.3635
3062	71.22	10	11.737
3063	71.24	9	12.2076
3064	71.26	11	12.8157
3065	71.28	15	13.6171
3066	71.3	16	14.6881
3067	71.32	18	16.1289
3068	71.34	20	18.0715
3069	71.36	20	20.7125
3070	71.38	25	24.3639
3071	71.4	29	29.535
3072	71.42	35	36.9496
3073	71.44	47	47.4611
3074	71.46	60	61.5147
3075	71.48	77	77.1828
3076	71.5	79	86.5341
3077	71.52	80	80.6375
3078	71.54	64	64.3942
3079	71.56	48	48.8036
3080	71.58	40	38.2928
3081	71.6	33	32.8436
3082	71.62	31	31.4585
3083	71.64	37	33.3547
3084	71.66	41	38.0391
3085	71.68	45	44.6016
3086	71.7	49	49.8632
3087	71.72	50	48.5845
3088	71.74	50	40.9902
3089	71.76	41	31.8603
3090	71.78	31	24.7762
3091	71.8	26	20.0684
3092	71.82	21	17.1464
3093	71.84	16	15.3761
3094	71.86	16	14.2861
3095	71.88	21	13.5804
3096	71.9	15	15.1078
3097	71.92	16	14.8863
3098	71.94	14	14.9269
3099	71.96	14	14.8977
3100	71.98	15	14.9505
3101	72	15	16.08
3102	72.02	16	16.39
3103	72.04	16	16.8209
3104	72.06	18	17.3965
3105	72.08	20	18.152
3106	72.1	18	18.5191
3107	72.12	23	24.5359
3108	72.14	29	26.565
3109	72.16	30	29.1356
3110	72.18	27	32.4541
3111	72.2	36	37.3158
3112	72.22	44	43.2813
3113	72.24	49	51.3779
3114	72.26	63	62.0964
3115	72.28	75	74.8817
3116	72.3	84	86.0527
3117	72.32	91	92.2226
3118	72.34	99	97.8505
3119	72.36	109	106.224
3120	72.38	124	123.536
3121	72.4	160	152.561
3122	72.42	194	195.436
3123	72.44	250	250.961
3124	72.46	305	304.785
3125	72.48	321	327.044
3126	72.5	310	312.338
3127	72.52	289	291.374
3128	72.54	281	283.812
3129	72.56	284	285.455
3130	72.58	278	286.085
3131	72.6	295	294.92
3132	72.62	329	329.613
3133	72.64	389	398.338
3134	72.66	501	494.008
3135	72.68	571	576.094
3136	72.7	584	574.939
3137	72.72	516	484.2
3138	72.74	397	375.526
3139	72.76	324	293.684
3140	72.78	241	238.621
3141	72.8	203	202.168
3142	72.82	185	186.153
3143	72.84	187	188.922
3144	72.86	231	209.678
3145	72.88	265	240.151
3146	72.9	271	256.676
3147	72.92	280	234.262
3148	72.94	205	184.231
3149	72.96	175	135.542
3150	72.98	125	99.8745
3151	73	80	76.5036
3152	73.02	74	62.5348
3153	73.04	54	53.4774
3154	73.06	50	45.7868
3155	73.08	44	42.0954
3156	73.1	42	39.9825
3157	73.12	40	38.3288
3158	73.14	38	37.365
3159	73.16	36	36.2242
3160	73.18	35	36.8426
3161	73.2	40	38.4451
3162	73.22	41	41.281
3163	73.24	51	45.7256
3164	73.26	49	52.4028
3165	73.28	70	57.837
3166	73.3	75	72.944
3167	73.32	103	94.0709
3168	73.34	134	122.06
3169	73.36	147	151.458
3170	73.38	174	166.073
3171	73.4	161	150.625
3172	73.42	131	118.437
3173	73.44	94	89.6885
3174	73.46	71	71.1823
3175	73.48	65	62.3043
3176	73.5	62	59.4485
3177	73.52	69	64.8687
3178	73.54	81	76.2697
3179	73.56	100	92.8994
3180	73.58	110	110.574
3181	73.6	124	119.92
3182	73.62	121	117.788
3183	73.64	131	112.034
3184	73.66	104	104.025
3185	73.68	90	88.5978
3186	73.7	71	69.1931
3187	73.72	54	53.0262
3188	73.74	44	42.331
3189	73.76	41	36.3098
3190	73.78	40	33.7749
3191	73.8	39	33.9105
3192	73.82	40	36.3086
3193	73.84	41	40.5494
3194	73.86	44	45.4395
3195	73.88	46	46.2291
3196	73.9	41	41.1127
3197	73.92	34	33.478
3198	73.94	28	26.9145
3199	73.96	23	22.3076
3200	73.98	19	18.0946
3201	74	17	16.2944
3202	74.02	16	15.1761
3203	74.04	14	14.463
3204	74.06	14	13.9915
3205	74.08	15	13.889
3206	74.1	14	13.6958
3207	74.12	13	13.6029
3208	74.14	15	13.6128
3209	74.16	14	13.7469
3210	74.18	14	13.3976
3211	74.2	14	13.9278
3212	74.22	15	14.6889
3213	74.24	15	15.6586
3214	74.26	16	16.2334
3215	74.28	20	17.5063
3216	74.3	20	19.2698
3217	74.32	22	21.9246
3218	74.34	25	25.8902
3219	74.36	34	31.6648
3220	74.38	44	39.6497
3221	74.4	54	49.2642
3222	74.42	55	56.7171
3223	74.44	60	55.8289
3224	74.46	45	46.7744
3225	74.48	44	36.6713
3226	74.5	30	29.0901
3227	74.52	25	24.5605
3228	74.54	25	22.5704
3229	74.56	23	22.584
3230	74.58	25	24.2941
3231	74.6	34	27.5205
3232	74.62	34	31.6374
3233	74.64	35	34.4092
3234	74.66	34	32.8437
3235	74.68	30	27.718
3236	74.7	19	22.3029
3237	74.72	18	18.2093
3238	74.74	16	15.4983
3239	74.76	12	13.8024
3240	74.78	13	12.763
3241	74.8	11	12.1207
3242	74.82	12	11.7133
3243	74.84	12	11.4385
3244	74.86	10	11.2741
3245	74.88	11	11.192
3246	74.9	12	11.1954
3247	74.92	10	11.3039
3248	74.94	10	11.552
3249	74.96	13	11.9854
3250	74.98	12	12.6383
3251	75	14	13.4385
3252	75.02	15	13.5897
3253	75.04	14	13.3646
3254	75.06	12	12.4389
3255	75.08	10	11.4667
3256	75.1	12	10.7626
3257	75.12	11	10.7884
3258	75.14	10	10.6336
3259	75.16	10	10.6613
3260	75.18	11	10.8462
3261	75.2	10	11.1751
3262	75.22	11	11.5955
3263	75.24	12	11.7053
3264	75.26	10	11.6346
3265	75.28	13	11.2261
3266	75.3	12	10.7968
3267	75.32	11	10.5042
3268	75.34	10	10.3578
3269	75.36	11	10.5592
3270	75.38	10	10.6315
3271	75.4	12	10.7762
3272	75.42	11	10.9905
3273	75.44	10	11.2838
3274	75.46	11	11.6785
3275	75.48	13	12.2089
3276	75.5	12	12.9241
3277	75.52	13	13.8871
3278	75.54	15	15.1837
3279	75.56	15	16.9351
3280	75.58	20	19.3343
3281	75.6	21	22.6832
3282	75.62	26	27.3874
3283	75.64	34	34.07
3284	75.66	39	42.9912
3285	75.68	52	52.8814
3286	75.7	59	58.6141
3287	75.72	49	54.7025
3288	75.74	44	44.3651
3289	75.76	29	34.4268
3290	75.78	24	27.5995
3291	75.8	22	23.791
3292	75.82	22	22.3321
3293	75.84	20	22.6956
3294	75.86	25	24.6949
3295	75.88	30	28.1654
3296	75.9	33	32.4769
3297	75.92	35	35.2642
3298	75.94	29	33.4908
3299	75.96	25	28.099
3300	75.98	24	22.5001
3301	76	20	18.3026
3302	76.02	17	15.5246
3303	76.04	13	13.7713
3304	76.06	10	12.674
3305	76.08	12	11.973
3306	76.1	10	11.4928
3307	76.12	13	11.1402
3308	76.14	10	10.8618
3309	76.16	11	10.6312
3310	76.18	12	10.4432
3311	76.2	11	10.4363
3312	76.22	12	10.3103
3313	76.24	10	10.2122
3314	76.26	12	10.1417
3315	76.28	11	10.0997
3316	76.3	9	9.66202
3317	76.32	10	9.71411
3318	76.34	9	9.80859
3319	76.36	9	9.95808
3320	76.38	9	10.1744
3321	76.4	10	10.4493
3322	76.42	9	10.7848
3323	76.44	10	10.916
3324	76.46	10	10.9474
3325	76.48	11	11.0423
3326	76.5	11	11.2811
3327	76.52	10	11.3746
3328	76.54	12	11.5511
3329	76.56	11	11.5099
3330	76.58	11	11.4536
3331	76.6	9	12.4403
3332	76.62	12	12.8858
3333	76.64	13	13.5872
3334	76.66	18	14.5281
3335	76.68	16	15.7866
3336	76.7	19	17.5811
3337	76.72	21	20.1496
3338	76.74	34	23.5358
3339	76.76	32	27.0328
3340	76.78	41	28.5837
3341	76.8	33	26.7041
3342	76.82	27	23.0591
3343	76.84	23	20.3348
3344	76.86	17	18.3908
3345	76.88	16	17.5451
3346	76.9	15	17.578
3347	76.92	18	18.3556
3348	76.94	20	19.8575
3349	76.96	23	22.1753
3350	76.98	26	25.1142
3351	77	29	28.0728
3352	77.02	30	30.134
3353	77.04	31	31.7816
3354	77.06	36	34.5593
3355	77.08	41	39.6461
3356	77.1	49	48.6697
3357	77.12	59	61.0229
3358	77.14	76	77.6929
3359	77.16	95	95.6438
3360	77.18	104	104.692
3361	77.2	95	95.7312
3362	77.22	71	76.0948
3363	77.24	57	58.0098
3364	77.26	44	45.7727
3365	77.28	40	39.0111
3366	77.3	29	36.4556
3367	77.32	38	37.192
3368	77.34	39	41.2161
3369	77.36	48	47.6459
3370	77.38	58	55.9247
3371	77.4	62	62.8073
3372	77.42	63	62.2228
3373	77.44	53	54.0986
3374	77.46	45	44.7875
3375	77.48	35	38.2917
3376	77.5	36	35.1661
3377	77.52	36	34.7422
3378	77.54	35	35.9574
3379	77.56	38	38.0251
3380	77.58	42	41.4327
3381	77.6	48	47.3112
3382	77.62	57	56.8772
3383	77.64	69	70.5799
3384	77.66	90	86.4941
3385	77.68	99	96.5261
3386	77.7	87	91.0828
3387	77.72	76	74.3397
3388	77.74	55	57.6979
3389	77.76	38	45.9857
3390	77.78	37	38.0726
3391	77.8	35	34.4254
3392	77.82	36	33.8016
3393	77.84	38	35.6228
3394	77.86	40	40.0231
3395	77.88	45	46.5983
3396	77.9	61	52.9894
3397	77.92	65	53.8994
3398	77.94	45	47.0684
3399	77.96	35	37.3206
3400	77.98	30	29.0976
3401	78	26	23.374
3402	78.02	21	19.2852
3403	78.04	17	16.977
3404	78.06	15	15.6256
3405	78.08	14	14.6907
3406	78.1	15	14.0615
3407	78.12	12	13.6222
3408	78.14	13	13.2685
3409	78.16	13	13.0764
3410	78.18	13	12.9959
3411	78.2	12	13.0409
3412	78.22	12	13.2342
3413	78.24	13	13.6084
3414	78.26	15	14.2125
3415	78.28	13	14.3773
3416	78.3	15	15.7678
3417	78.32	17	17.7723
3418	78.34	20	20.6217
3419	78.36	25	24.4368
3420	78.38	31	28.5685
3421	78.4	30	30.7798
3422	78.42	29	28.85
3423	78.44	24	24.3358
3424	78.46	20	20.0737
3425	78.48	17	17.1283
3426	78.5	15	15.4276
3427	78.52	15	14.3193
3428	78.54	15	14.3245
3429	78.56	15	14.9531
3430	78.58	16	16.1919
3431	78.6	18	17.9576
3432	78.62	20	19.672
3433	78.64	20	19.9893
3434	78.66	20	18.2894
3435	78.68	16	15.788
3436	78.7	15	13.6547
3437	78.72	14	12.1602
3438	78.74	12	11.1888
3439	78.76	10	10.5721
3440	78.78	8	10.176
3441	78.8	9	9.9119
3442	78.82	9	9.72469
3443	78.84	9	9.58253
3444	78.86	10	9.46781
3445	78.88	10	9.37121
3446	78.9	9	9.28702
3447	78.92	9	9.21274
3448	78.94	9	9.14856
3449	78.96	9	9.09487
3450	78.98	10	9.62566
3451	79	9	9.43763
3452	79.02	10	9.47088
3453	79.04	10	9.51912
3454	79.06	10	9.58452
3455	79.08	8	9.66745
3456	79.1	9	9.7583
3457	79.12	9	9.83312
3458	79.14	10	9.88194
3459	79.16	10	9.92983
3460	79.18	10	10.0016
3461	79.2	9	10.1057
3462	79.22	10	10.5316
3463	79.24	9	10.6345
3464	79.26	10	10.8858
3465	79.28	12	11.1973
3466	79.3	11	11.5887
3467	79.32	13	12.0874
3468	79.34	13	12.7258
3469	79.36	13	13.5446
3470	79.38	15	14.609
3471	79.4	16	16.021
3472	79.42	19	17.9064
3473	79.44	21	20.4382
3474	79.46	23	23.8821
3475	79.48	29	28.647
3476	79.5	31	35.3295
3477	79.52	39	44.5899
3478	79.54	54	56.4175
3479	79.56	59	67.7245
3480	79.58	71	70.876
3481	79.6	63	62.2741
3482	79.62	47	48.9525
3483	79.64	34	37.7847
3484	79.66	29	30.4711
3485	79.68	25	26.436
3486	79.7	25	24.8542
3487	79.72	24	25.1732
3488	79.74	25	27.1849
3489	79.76	29	30.895
3490	79.78	34	36.0496
3491	79.8	41	40.8624
3492	79.82	39	41.4352
3493	79.84	35	36.3147
3494	79.86	28	29.1401
3495	79.88	19	23.1131
3496	79.9	21	18.9049
3497	79.92	19	16.1616
3498	79.94	15	14.4057
3499	79.96	13	13.2673
3500	79.98	11	12.5017
3501	80	12	11.9534
3502	80.02	10	11.5326
3503	80.04	12	11.1894
3504	80.06	10	10.8981
3505	80.08	10	10.6459
3506	80.1	10	10.4262
3507	80.12	10	10.2346
3508	80.14	9	10.0678
3509	80.16	10	9.92269
3510	80.18	9	9.23105
3511	80.2	9	9.15581
3512	80.22	10	9.09079
3513	80.24	9	9.03433
3514	80.26	10	10.0529
3515	80.28	10	10.0851
3516	80.3	11	10.1308
3517	80.32	9	10.1902
3518	80.34	10	10.2644
3519	80.36	10	10.3545
3520	80.38	10	10.4624
3521	80.4	10	10.5903
3522	80.42	10	10.4614
3523	80.44	10	10.6568
3524	80.46	10	10.8826
3525	80.48	12	11.1458
3526	80.5	11	11.9802
3527	80.52	10	12.3877
3528	80.54	10	12.8793
3529	80.56	13	13.4836
3530	80.58	14	14.2427
3531	80.6	15	15.2149
3532	80.62	17	16.4806
3533	80.64	21	18.1458
3534	80.66	19	20.3437
3535	80.68	22	23.2495
3536	80.7	26	27.0991
3537	80.72	29	32.251
3538	80.74	39	39.2575
3539	80.76	45	48.975
3540	80.78	62	62.5479
3541	80.8	78	80.9128
3542	80.82	99	102.348
3543	80.84	118	117.526
3544	80.86	98	113.421
3545	80.88	89	92.7885
3546	80.9	67	70.3017
3547	80.92	49	53.6774
3548	80.94	41	43.4467
3549	80.96	42	38.1871
3550	80.98	40	36.616
3551	81	34	38.0101
3552	81.02	43	42.1911
3553	81.04	55	49.2553
3554	81.06	60	58.5293
3555	81.08	64	66.1915
3556	81.1	70	65.3764
3557	81.12	55	55.3067
3558	81.14	44	42.9011
3559	81.16	33	32.9165
3560	81.18	29	26.0351
3561	81.2	24	21.5491
3562	81.22	18	18.6568
3563	81.24	15	16.7635
3564	81.26	15	15.472
3565	81.28	15	14.5371
3566	81.3	12	13.8137
3567	81.32	13	13.2216
3568	81.34	11	12.7265
3569	81.36	12	12.2934
3570	81.38	11	11.9181
3571	81.4	12	12.9557
3572	81.42	11	12.7719
3573	81.44	11	12.639
3574	81.46	12	11.564
3575	81.48	12	11.5879
3576	81.5	12	11.6533
3577	81.52	12	11.7626
3578	81.54	11	11.92
3579	81.56	13	12.1328
3580	81.58	14	12.4354
3581	81.6	13	12.8022
3582	81.62	14	13.2769
3583	81.64	16	14.5329
3584	81.66	16	15.2621
3585	81.68	17	15.9447
3586	81.7	17	15.9962
3587	81.72	18	16.6198
3588	81.74	19	17.5218
3589	81.76	21	18.8527
3590	81.78	24	20.7268
3591	81.8	25	23.2833
3592	81.82	31	26.7217
3593	81.84	35	31.2797
3594	81.86	39	37.3572
3595	81.88	50	45.5488
3596	81.9	55	56.7805
3597	81.92	71	72.3336
3598	81.94	89	93.573
3599	81.96	120	120.002
3600	81.98	143	143.53
3601	82	150	147.115
3602	82.02	131	125.926
3603	82.04	94	96.6242
3604	82.06	73	73.2265
3605	82.08	56	57.835
3606	82.1	47	49.3542
3607	82.12	45	45.9982
3608	82.14	45	46.5825
3609	82.16	56	50.5185
3610	82.18	55	57.6205
3611	82.2	68	67.7822
3612	82.22	82	79.1431
3613	82.24	90	84.8217
3614	82.26	80	77.9342
3615	82.28	65	62.7989
3616	82.3	46	48.2665
3617	82.32	41	37.88
3618	82.34	32	30.7889
3619	82.36	25	26.3478
3620	82.38	24	23.6752
3621	82.4	23	22.1291
3622	82.42	20	21.2216
3623	82.44	20	20.6053
3624	82.46	23	20.2172
3625	82.48	20	20.176
3626	82.5	20	20.5774
3627	82.52	21	21.4966
3628	82.54	23	23.0454
3629	82.56	25	25.6348
3630	82.58	27	29.2048
3631	82.6	32	34.3041
3632	82.62	39	39.674
3633	82.64	47	46.0235
3634	82.66	55	47.8031
3635	82.68	45	43.2238
3636	82.7	35	36.2349
3637	82.72	30	30.6178
3638	82.74	25	27.3495
3639	82.76	25	26.1791
3640	82.78	25	26.7474
3641	82.8	26	28.8762
3642	82.82	29	32.7263
3643	82.84	37	38.6655
3644	82.86	48	46.5436
3645	82.88	57	57.2695
3646	82.9	61	66.5125
3647	82.92	64	67.2821
3648	82.94	54	58.0094
3649	82.96	45	45.5417
3650	82.98	35	35.3549
3651	83	27	28.5334
3652	83.02	24	24.4556
3653	83.04	22	22.3321
3654	83.06	22	21.6462
3655	83.08	21	22.1099
3656	83.1	23	23.6657
3657	83.12	27	26.3391
3658	83.14	25	29.7738
3659	83.16	31	32.3201
3660	83.18	29	31.572
3661	83.2	26	27.7683
3662	83.22	24	23.3802
3663	83.24	17	19.7124
3664	83.26	15	16.9198
3665	83.28	15	14.6106
3666	83.3	14	13.2842
3667	83.32	13	13.2947
3668	83.34	12	12.7656
3669	83.36	12	12.4293
3670	83.38	11	12.225
3671	83.4	12	12.122
3672	83.42	12	12.1093
3673	83.44	11	12.1818
3674	83.46	12	12.3118
3675	83.48	12	12.4109
3676	83.5	12	12.3803
3677	83.52	12	12.2516
3678	83.54	11	11.6152
3679	83.56	12	11.6309
3680	83.58	10	12.1956
3681	83.6	12	12.4437
3682	83.62	12	12.7979
3683	83.64	13	13.3616
3684	83.66	15	13.9934
3685	83.68	14	14.8229
3686	83.7	13	15.9145
3687	83.72	20	17.3541
3688	83.74	20	19.2439
3689	83.76	20	21.7117
3690	83.78	25	24.9351
3691	83.8	29	29.0152
3692	83.82	35	34.7601
3693	83.84	50	42.6361
3694	83.86	55	53.5704
3695	83.88	75	68.4188
3696	83.9	90	86.0696
3697	83.92	99	99.3602
3698	83.94	88	97.5728
3699	83.96	77	81.5013
3700	83.98	57	62.8199
3701	84	48	48.52
3702	84.02	37	39.4356
3703	84.04	29	34.4559
3704	84.06	35	32.4894
3705	84.08	45	32.856
3706	84.1	35	35.3023
3707	84.12	40	39.9571
3708	84.14	54	47.0044
3709	84.16	61	55.5782
3710	84.18	52	61.8114
3711	84.2	56	60.6416
3712	84.22	52	53.2514
3713	84.24	45	44.4105
3714	84.26	35	36.2892
3715	84.28	31	29.4067
3716	84.3	26	24.2202
3717	84.32	21	20.6688
3718	84.34	20	18.3543
3719	84.36	17	16.8663
3720	84.38	21	15.9256
3721	84.4	15	15.3661
3722	84.42	15	15.1096
3723	84.44	11	15.137
3724	84.46	15	15.4391
3725	84.48	14	15.938
3726	84.5	16	16.1153
3727	84.52	15	15.5798
3728	84.54	15	14.527
3729	84.56	11	12.652
3730	84.58	11	11.9329
3731	84.6	10	11.4897
3732	84.62	10	11.2653
3733	84.64	11	11.2165
3734	84.66	9	11.3187
3735	84.68	11	11.5675
3736	84.7	11	11.98
3737	84.72	12	12.6007
3738	84.74	13	13.5079
3739	84.76	15	14.8096
3740	84.78	15	16.5491
3741	84.8	16	18.395
3742	84.82	18	18.8719
3743	84.84	17	17.947
3744	84.86	15	15.9231
3745	84.88	12	13.9443
3746	84.9	12	12.6344
3747	84.92	11	11.8709
3748	84.94	10	11.4923
3749	84.96	11	11.3385
3750	84.98	11	11.4149
3751	85	9	11.6057
3752	85.02	11	12.0467
3753	85.04	12	12.7556
3754	85.06	12	13.5779
3755	85.08	14	14.0056
3756	85.1	12	13.5463
3757	85.12	12	12.4917
3758	85.14	10	11.4172
3759	85.16	10	10.6627
3760	85.18	10	10.1743
3761	85.2	9	9.86957
3762	85.22	10	9.65976
3763	85.24	9	9.52885
3764	85.26	11	9.39747
3765	85.28	10	9.30789
3766	85.3	9	9.25713
3767	85.32	9	9.2399
3768	85.34	9	9.25394
3769	85.36	10	9.30071
3770	85.38	9	9.38476
3771	85.4	9	9.51363
3772	85.42	9	9.80216
3773	85.44	10	10.0628
3774	85.46	10	10.3227
3775	85.48	10	10.8065
3776	85.5	11	11.4707
3777	85.52	12	12.3937
3778	85.54	13	13.646
3779	85.56	15	15.1258
3780	85.58	16	16.2335
3781	85.6	21	16.1816
3782	85.62	15	14.8534
3783	85.64	13	13.3012
3784	85.66	13	12.1121
3785	85.68	11	11.3573
3786	85.7	12	11.0007
3787	85.72	10	10.7995
3788	85.74	11	10.8428
3789	85.76	10	11.059
3790	85.78	12	11.4575
3791	85.8	13	12.0652
3792	85.82	14	12.8664
3793	85.84	16	13.6466
3794	85.86	12	13.9722
3795	85.88	12	13.7633
3796	85.9	15	13.3757
3797	85.92	15	13.2526
3798	85.94	12	13.5377
3799	85.96	15	14.2817
3800	85.98	13	15.55
3801	86	15	17.3709
3802	86.02	20	19.4254
3803	86.04	20	20.6594
3804	86.06	20	20.0754
3805	86.08	19	18.3196
3806	86.1	17	16.7123
3807	86.12	15	15.8388
3808	86.14	14	15.761
3809	86.16	15	16.4447
3810	86.18	18	17.8412
3811	86.2	20	19.6751
3812	86.22	21	20.9789
3813	86.24	18	20.9104
3814	86.26	20	19.7995
3815	86.28	18	18.7768
3816	86.3	18	18.0466
3817	86.32	19	17.021
3818	86.34	15	15.9161
3819	86.36	14	14.5642
3820	86.38	13	13.6585
3821	86.4	15	13.2346
3822	86.42	13	13.2407
3823	86.44	14	13.6373
3824	86.46	15	14.3415
3825	86.48	15	15.0256
3826	86.5	15	15.0406
3827	86.52	15	14.2423
3828	86.54	13	13.1152
3829	86.56	12	12.1559
3830	86.58	11	11.4937
3831	86.6	10	11.0858
3832	86.62	10	11.0472
3833	86.64	10	11.0672
3834	86.66	12	11.108
3835	86.68	10	11.1443
3836	86.7	10	11.3861
3837	86.72	11	11.7416
3838	86.74	12	12.2351
3839	86.76	13	12.8931
3840	86.78	12	13.7379
3841	86.8	15	14.8102
3842	86.82	16	16.206
3843	86.84	18	18.0671
3844	86.86	21	20.5013
3845	86.88	23	23.9964
3846	86.9	30	28.8748
3847	86.92	34	35.2024
3848	86.94	39	41.5551
3849	86.96	44	44.337
3850	86.98	39	40.8303
3851	87	28	33.847
3852	87.02	26	27.3968
3853	87.04	21	22.884
3854	87.06	20	20.1636
3855	87.08	17	18.7883
3856	87.1	18	18.4147
3857	87.12	19	18.8519
3858	87.14	21	20.0132
3859	87.16	20	22.0988
3860	87.18	31	25.1953
3861	87.2	30	29.2222
3862	87.22	35	33.0925
3863	87.24	35	34.696
3864	87.26	34	33.1373
3865	87.28	31	29.352
3866	87.3	24	25.59
3867	87.32	21	21.5794
3868	87.34	18	18.7105
3869	87.36	15	16.8888
3870	87.38	15	15.8497
3871	87.4	16	15.3745
3872	87.42	15	15.3305
3873	87.44	16	15.6706
3874	87.46	15	16.4049
3875	87.48	18	17.5501
3876	87.5	21	18.9513
3877	87.52	20	20.0483
3878	87.54	20	20.1326
3879	87.56	18	19.0909
3880	87.58	18	18.0135
3881	87.6	17	16.4512
3882	87.62	15	15.7538
3883	87.64	19	15.5354
3884	87.66	17	15.7252
3885	87.68	16	16.2868
3886	87.7	16	17.2306
3887	87.72	18	18.6122
3888	87.74	22	21.8324
3889	87.76	25	24.4438
3890	87.78	29	27.7029
3891	87.8	32	31.5829
3892	87.82	34	36.3495
3893	87.84	41	42.7356
3894	87.86	49	51.7242
3895	87.88	59	64.0665
3896	87.9	81	79.7865
3897	87.92	103	93.8693
3898	87.94	96	96.7995
3899	87.96	79	85.2395
3900	87.98	67	68.1641
3901	88	58	53.7765
3902	88.02	47	44.7833
3903	88.04	41	39.1878
3904	88.06	35	36.9903
3905	88.08	38	36.6391
3906	88.1	37	38.1611
3907	88.12	42	41.5208
3908	88.14	45	46.9888
3909	88.16	55	54.899
3910	88.18	71	64.9568
3911	88.2	81	74.4763
3912	88.22	85	78.8658
3913	88.24	85	78.0721
3914	88.26	83	77.5369
3915	88.28	97	81.6958
3916	88.3	99	92.4791
3917	88.32	121	110.267
3918	88.34	142	131.741
3919	88.36	164	144.668
3920	88.38	157	136.523
3921	88.4	118	112.44
3922	88.42	92	87.4585
3923	88.44	72	68.8663
3924	88.46	63	57.0211
3925	88.48	50	50.367
3926	88.5	44	47.5283
3927	88.52	46	47.6668
3928	88.54	49	50.4228
3929	88.56	61	55.9178
3930	88.58	62	63.8473
3931	88.6	83	76.3236
3932	88.62	104	91.0327
3933	88.64	114	102.428
3934	88.66	121	104.639
3935	88.68	104	98.8584
3936	88.7	86	87.7901
3937	88.72	67	72.5993
3938	88.74	62	57.2998
3939	88.76	48	45.2767
3940	88.78	35	36.9902
3941	88.8	32	31.6255
3942	88.82	29	28.298
3943	88.84	27	26.3934
3944	88.86	31	25.1322
3945	88.88	31	25.1901
3946	88.9	29	26.1443
3947	88.92	31	30.3809
3948	88.94	34	33.4099
3949	88.96	41	36.3333
3950	88.98	36	36.8526
3951	89	42	33.8932
3952	89.02	38	28.1948
3953	89.04	25	24.3179
3954	89.06	23	21.587
3955	89.08	20	21.5282
3956	89.1	24	20.6179
3957	89.12	22	20.3772
3958	89.14	19	20.3489
3959	89.16	20	20.5319
3960	89.18	21	20.8409
3961	89.2	23	22.4211
3962	89.22	31	23.1741
3963	89.24	34	24.2056
3964	89.26	24	25.5697
3965	89.28	31	27.3437
3966	89.3	33	29.0401
3967	89.32	35	32.0422
3968	89.34	46	35.4955
3969	89.36	50	40.5085
3970	89.38	52	47.8228
3971	89.4	56	56.2092
3972	89.42	74	66.8597
3973	89.44	82	80.6135
3974	89.46	111	98.748
3975	89.48	124	123.306
3976	89.5	149	156.827
3977	89.52	188	199.6
3978	89.54	239	242.264
3979	89.56	241	261.451
3980	89.58	226	243.974
3981	89.6	205	209.225
3982	89.62	176	181.102
3983	89.64	163	169.013
3984	89.66	157	173.421
3985	89.68	194	192.755
3986	89.7	213	220.957
3987	89.72	244	241.646
3988	89.74	233	237.4
3989	89.76	214	213.801
3990	89.78	190	191.022
3991	89.8	174	180.538
3992	89.82	180	180.466
3993	89.84	169	178.381
3994	89.86	147	162.811
3995	89.88	140	138.596
3996	89.9	124	119.609
3997	89.92	112	106.996
3998	89.94	107	103.092
3999	89.96	110	106.991
4000	89.98	118	116.327
4001	90	126	124.206
4002	90.02	123	120.688
4003	90.04	105	104.56
4004	90.06	83	84.6178
4005	90.08	66	67.7194
4006	90.1	59	55.468
4007	90.12	51	47.0629
4008	90.14	43	41.3756
4009	90.16	35	37.5363
4010	90.18	37	35.988
4011	90.2	34	34.3572
4012	90.22	35	31.2789
4013	90.24	31	31.0337
4014	90.26	30	31.3305
4015	90.28	32	32.21
4016	90.3	44	33.7681
4017	90.32	39	36.1533
4018	90.34	38	39.5579
4019	90.36	51	44.2281
4020	90.38	52	48.8262
4021	90.4	56	56.9951
4022	90.42	78	67.8998
4023	90.44	89	82.4188
4024	90.46	121	102.241
4025	90.48	132	129.514
4026	90.5	154	163.751
4027	90.52	189	199.764
4028	90.54	199	215.948
4029	90.56	191	197.228
4030	90.58	158	157.822
4031	90.6	124	120.058
4032	90.62	93	92.582
4033	90.64	67	74.8845
4034	90.66	61	63.6366
4035	90.68	60	58.4775
4036	90.7	55	57.1658
4037	90.72	60	59.2205
4038	90.74	74	64.5716
4039	90.76	80	73.792
4040	90.78	84	87.5021
4041	90.8	105	104.245
4042	90.82	118	116.712
4043	90.84	124	114.104
4044	90.86	102	96.4551
4045	90.88	76	75.0049
4046	90.9	64	57.3938
4047	90.92	47	44.8828
4048	90.94	44	36.3474
4049	90.96	38	30.5222
4050	90.98	30	26.4861
4051	91	29	23.6152
4052	91.02	22	21.5019
4053	91.04	17	19.8762
4054	91.06	21	18.5671
4055	91.08	19	17.4686
4056	91.1	16	16.5249
4057	91.12	17	15.706
4058	91.14	15	14.9943
4059	91.16	16	14.376
4060	91.18	14	13.8445
4061	91.2	12	11.35
4062	91.22	11	11.0684
4063	91.24	10	10.829
4064	91.26	11	10.6126
4065	91.28	11	10.4016
4066	91.3	11	10.1992
4067	91.32	10	10.0169
4068	91.34	10	10.5662
4069	91.36	9	10.4748
4070	91.38	10	10.406
4071	91.4	11	10.3571
4072	91.42	12	10.3264
4073	91.44	11	10.3122
4074	91.46	11	10.316
4075	91.48	11	10.34
4076	91.5	10	9.39852
4077	91.52	12	9.51467
4078	91.54	9	9.64408
4079	91.56	9	9.78207
4080	91.58	9	9.92897
4081	91.6	10	10.0953
4082	91.62	9	10.3231
4083	91.64	10	10.9487
4084	91.66	10	11.2708
4085	91.68	9	11.6585
4086	91.7	11	12.1356
4087	91.72	13	12.7309
4088	91.74	14	13.4849
4089	91.76	16	14.4492
4090	91.78	17	15.6867
4091	91.8	18	17.2582
4092	91.82	19	19.2135
4093	91.84	22	21.617
4094	91.86	25	24.6311
4095	91.88	30	28.5269
4096	91.9	34	33.7138
4097	91.92	51	40.8123
4098	91.94	66	50.5051
4099	91.96	75	62.6314
4100	91.98	64	73.8767
4101	92	74	77.1235
4102	92.02	65	69.1447
4103	92.04	51	55.9391
4104	92.06	49	44.1421
4105	92.08	38	35.8178
4106	92.1	31	30.5759
4107	92.12	30	27.5799
4108	92.14	26	26.1945
4109	92.16	28	26.0623
4110	92.18	27	27.0458
4111	92.2	31	29.1992
4112	92.22	37	32.7631
4113	92.24	40	37.9803
4114	92.26	51	44.3728
4115	92.28	54	49.4591
4116	92.3	61	49.302
4117	92.32	41	43.2459
4118	92.34	36	35.1402
4119	92.36	29	28.264
4120	92.38	25	23.2744
4121	92.4	21	19.8762
4122	92.42	20	17.5909
4123	92.44	17	16.0557
4124	92.46	15	15.0316
4125	92.48	15	14.3695
4126	92.5	14	13.9786
4127	92.52	14	13.824
4128	92.54	13	13.8638
4129	92.56	13	13.9469
4130	92.58	13	13.8327
4131	92.6	14	13.3582
4132	92.62	12	12.6443
4133	92.64	12	12.0245
4134	92.66	10	10.7871
4135	92.68	11	10.4082
4136	92.7	9	10.144
4137	92.72	9	9.96426
4138	92.74	9	9.84803
4139	92.76	9	9.78253
4140	92.78	10	9.76088
4141	92.8	9	9.77867
4142	92.82	10	9.84157
4143	92.84	9	9.95598
4144	92.86	9	10.1199
4145	92.88	11	10.3493
4146	92.9	10	10.6639
4147	92.92	9	11.0982
4148	92.94	7	11.7217
4149	92.96	11	12.1811
4150	92.98	15	13.1823
4151	93	16	14.0613
4152	93.02	17	14.1203
4153	93.04	16	13.4347
4154	93.06	15	12.568
4155	93.08	15	11.9301
4156	93.1	11	11.6134
4157	93.12	12	11.5867
4158	93.14	11	11.8096
4159	93.16	11	12.2429
4160	93.18	10	12.8246
4161	93.2	11	13.5019
4162	93.22	13	14.3554
4163	93.24	18	15.9238
4164	93.26	17	17.622
4165	93.28	20	19.4588
4166	93.3	21	20.4661
4167	93.32	20	19.7197
4168	93.34	19	17.7823
4169	93.36	17	15.7891
4170	93.38	13	14.3093
4171	93.4	14	13.3821
4172	93.42	13	12.8945
4173	93.44	12	12.7418
4174	93.46	13	12.8516
4175	93.48	13	13.163
4176	93.5	13	13.6287
4177	93.52	12	14.2687
4178	93.54	14	15.3597
4179	93.56	16	16.6588
4180	93.58	21	18.2972
4181	93.6	21	19.9716
4182	93.62	23	21.2584
4183	93.64	23	21.8671
4184	93.66	23	21.4956
4185	93.68	22	20.2495
4186	93.7	18	19.052
4187	93.72	19	18.4416
4188	93.74	19	18.5583
4189	93.76	21	19.3713
4190	93.78	20	20.8822
4191	93.8	24	23.2036
4192	93.82	26	26.5905
4193	93.84	34	31.3243
4194	93.86	38	37.1874
4195	93.88	43	42.3891
4196	93.9	45	43.6412
4197	93.92	39	40.0011
4198	93.94	34	34.2787
4199	93.96	29	28.9445
4200	93.98	25	24.5183
4201	94	21	21.2257
4202	94.02	15	19.0138
4203	94.04	20	17.6939
4204	94.06	16	17.0738
4205	94.08	15	17.0166
4206	94.1	14	17.4725
4207	94.12	20	18.4871
4208	94.14	21	20.1717
4209	94.16	18	22.5234
4210	94.18	26	24.9505
4211	94.2	27	25.942
4212	94.22	25	24.364
4213	94.24	20	21.1817
4214	94.26	20	18.0229
4215	94.28	15	15.553
4216	94.3	14	13.8503
4217	94.32	10	12.6733
4218	94.34	10	11.7777
4219	94.36	13	11.2023
4220	94.38	11	10.7908
4221	94.4	10	10.492
4222	94.42	10	10.2731
4223	94.44	10	10.1131
4224	94.46	10	10.0007
4225	94.48	9	9.93187
4226	94.5	9	9.90927
4227	94.52	9	9.94259
4228	94.54	10	10.0436
4229	94.56	9	10.2047
4230	94.58	11	10.0247
4231	94.6	10	10.0318
4232	94.62	8	9.8187
4233	94.64	9	9.46682
4234	94.66	8	9.18684
4235	94.68	8	9.01132
4236	94.7	8	8.87133
4237	94.72	9	8.77949
4238	94.74	9	8.72258
4239	94.76	9	8.6922
4240	94.78	9	8.68361
4241	94.8	8	8.69545
4242	94.82	8	8.72989
4243	94.84	8	8.79224
4244	94.86	9	8.8858
4245	94.88	10	8.82776
4246	94.9	8	8.9053
4247	94.92	9	8.99856
4248	94.94	9	8.8871
4249	94.96	10	8.7603
4250	94.98	8	8.6783
4251	95	8	8.61811
4252	95.02	9	8.58705
4253	95.04	9	8.57804
4254	95.06	8	8.58655
4255	95.08	7	8.6104
4256	95.1	9	8.64915
4257	95.12	8	8.70362
4258	95.14	9	8.77581
4259	95.16	9	8.86867
4260	95.18	10	8.98611
4261	95.2	10	9.13337
4262	95.22	10	9.37678
4263	95.24	11	9.61721
4264	95.26	9	9.9332
4265	95.28	10	10.3418
4266	95.3	10	10.8907
4267	95.32	9	11.4954
4268	95.34	12	11.925
4269	95.36	12	11.956
4270	95.38	11	11.7025
4271	95.4	13	11.4694
4272	95.42	12	11.4277
4273	95.44	12	11.6102
4274	95.46	11	12.0144
4275	95.48	11	12.6587
4276	95.5	13	13.6061
4277	95.52	15	14.9546
4278	95.54	16	16.7469
4279	95.56	19	18.6866
4280	95.58	21	19.8668
4281	95.6	24	19.4183
4282	95.62	18	17.7732
4283	95.64	16	15.9798
4284	95.66	15	14.533
4285	95.68	13	13.3314
4286	95.7	12	12.3884
4287	95.72	11	11.7283
4288	95.74	10	11.3317
4289	95.76	10	11.1512
4290	95.78	10	11.1491
4291	95.8	12	11.3134
4292	95.82	12	11.6627
4293	95.84	13	12.2342
4294	95.86	12	13.0212
4295	95.88	12	13.8153
4296	95.9	14	14.1177
4297	95.92	12	13.5857
4298	95.94	13	12.5426
4299	95.96	12	11.514
4300	95.98	11	10.7434
4301	96	12	10.1916
4302	96.02	11	9.81409
4303	96.04	9	9.5277
4304	96.06	9	9.69155
4305	96.08	8	9.60119
4306	96.1	8	9.55932
4307	96.12	8	9.55752
4308	96.14	9	9.59191
4309	96.16	9	9.6617
4310	96.18	9	9.76888
4311	96.2	10	9.91868
4312	96.22	10	10.1218
4313	96.24	9	10.3983
4314	96.26	11	10.7793
4315	96.28	12	11.1807
4316	96.3	10	11.7969
4317	96.32	12	12.3091
4318	96.34	12	12.8728
4319	96.36	13	12.529
4320	96.38	12	12.2202
4321	96.4	12	11.8681
4322	96.42	11	11.7031
4323	96.44	11	11.7107
4324	96.46	10	11.8679
4325	96.48	13	12.6442
4326	96.5	13	13.1135
4327	96.52	15	13.7452
4328	96.54	14	14.5671
4329	96.56	15	15.6179
4330	96.58	16	16.9503
4331	96.6	19	18.5707
4332	96.62	25	20.6546
4333	96.64	29	23.1875
4334	96.66	25	26.486
4335	96.68	31	30.3956
4336	96.7	37	35.3824
4337	96.72	51	40.6763
4338	96.74	55	43.7373
4339	96.76	50	42.3277
4340	96.78	40	37.7719
4341	96.8	31	33.3628
4342	96.82	30	30.2276
4343	96.84	26	28.7655
4344	96.86	30	28.7211
4345	96.88	28	29.8825
4346	96.9	34	32.1961
4347	96.92	35	35.7974
4348	96.94	44	41.0276
4349	96.96	53	48.302
4350	96.98	60	57.4809
4351	97	71	66.6273
4352	97.02	54	71.9657
4353	97.04	58	71.7905
4354	97.06	64	69.0289
4355	97.08	58	65.1397
4356	97.1	56	62.6619
4357	97.12	63	63.165
4358	97.14	73	66.2311
4359	97.16	62	68.4313
4360	97.18	61	65.5875
4361	97.2	56	58.0244
4362	97.22	46	49.8224
4363	97.24	43	43.7666
4364	97.26	37	40.4375
4365	97.28	42	39.5775
4366	97.3	41	40.6731
4367	97.32	47	42.5718
4368	97.34	48	43.2194
4369	97.36	44	41.3253
4370	97.38	37	38.3532
4371	97.4	39	36.1383
4372	97.42	34	35.281
4373	97.44	42	35.8791
4374	97.46	40	38.1489
4375	97.48	36	40.2856
4376	97.5	39	40.1558
4377	97.52	44	37.3
4378	97.54	36	33.5787
4379	97.56	26	30.7138
4380	97.58	31	29.1963
4381	97.6	34	28.9376
4382	97.62	31	29.7677
4383	97.64	31	31.6913
4384	97.66	26	34.75
4385	97.68	41	39.3574
4386	97.7	43	45.9515
4387	97.72	61	54.0479
4388	97.74	71	62.033
4389	97.76	61	64.78
4390	97.78	61	59.5427
4391	97.8	61	50.1401
4392	97.82	44	41.1708
4393	97.84	39	34.5615
4394	97.86	34	30.2456
4395	97.88	31	27.2349
4396	97.9	29	25.992
4397	97.92	24	25.7615
4398	97.94	25	26.3914
4399	97.96	31	27.8458
4400	97.98	34	30.2541
4401	98	35	33.8481
4402	98.02	43	39.0387
4403	98.04	45	45.6475
4404	98.06	53	52.6568
4405	98.08	56	56.1427
4406	98.1	50	53.1087
4407	98.12	54	45.6279
4408	98.14	41	37.4483
4409	98.16	36	31.0308
4410	98.18	31	26.6029
4411	98.2	26	23.5009
4412	98.22	26	21.7456
4413	98.24	21	20.7673
4414	98.26	24	20.3474
4415	98.28	18	20.4089
4416	98.3	21	20.9534
4417	98.32	22	21.8617
4418	98.34	23	22.7884
4419	98.36	23	23.4607
4420	98.38	24	24.5268
4421	98.4	25	24.5215
4422	98.42	28	23.4367
4423	98.44	22	21.4044
4424	98.46	20	19.3795
4425	98.48	21	17.1709
4426	98.5	20	16.0737
4427	98.52	17	15.4279
4428	98.54	16	15.1281
4429	98.56	17	15.0974
4430	98.58	16	15.2801
4431	98.6	16	15.6559
4432	98.62	18	16.2529
4433	98.64	17	17.0828
4434	98.66	19	18.0402
4435	98.68	18	18.9417
4436	98.7	19	19.8378
4437	98.72	21	21.2343
4438	98.74	24	22.9123
4439	98.76	25	25.4299
4440	98.78	31	28.8167
4441	98.8	32	31.9357
4442	98.82	35	34.0944
4443	98.84	34	33.4946
4444	98.86	32	31.0733
4445	98.88	30	29.1473
4446	98.9	28	27.9629
4447	98.92	29	28.0322
4448	98.94	28	29.2363
4449	98.96	32	31.5129
4450	98.98	35	35
4451	99	40	40.0491
4452	99.02	44	47.1783
4453	99.04	61	56.4346
4454	99.06	66	66.0712
4455	99.08	69	71.711
4456	99.1	65	69.6059
4457	99.12	58	61.9992
4458	99.14	54	53.6164
4459	99.16	46	46.34
4460	99.18	40	40.0433
4461	99.2	41	34.882
4462	99.22	32	31.3767
4463	99.24	27	29.1264
4464	99.26	31	28.0876
4465	99.28	27	28.0501
4466	99.3	31	28.9141
4467	99.32	33	30.7414
4468	99.34	34	33.7258
4469	99.36	41	38.0737
4470	99.38	42	43.5162
4471	99.4	47	48.5314
4472	99.42	50	50.5984
4473	99.44	46	48.603
4474	99.46	44	44.6862
4475	99.48	37	41.5138
4476	99.5	35	40.486
4477	99.52	41	41.8874
4478	99.54	43	45.1521
4479	99.56	49	49.1667
4480	99.58	49	50.6134
4481	99.6	45	47.3915
4482	99.62	38	41.2098
4483	99.64	34	35.1361
4484	99.66	30	30.6491
4485	99.68	28	27.8302
4486	99.7	27	26.3313
4487	99.72	26	25.7622
4488	99.74	25	25.7919
4489	99.76	26	26.3035
4490	99.78	26	27.3734
4491	99.8	27	28.2054
4492	99.82	30	29.3262
4493	99.84	30	29.6209
4494	99.86	30	29.676
4495	99.88	30	30.6929
4496	99.9	29	31.6867
4497	99.92	31	31.579
4498	99.94	28	29.3478
4499	99.96	25	25.821
4500	99.98	23	22.4468
4501	100	21	19.8798
4502	100.02	19	18.1204
4503	100.04	21	16.9809
4504	100.06	17	16.3249
4505	100.08	17	16.0355
4506	100.1	16	16.3924
4507	100.12	16	16.7235
4508	100.14	15	16.9084
4509	100.16	16	17.0918
4510	100.18	16	16.6459
4511	100.2	17	15.7769
4512	100.22	16	14.9146
4513	100.24	15	14.5399
4514	100.26	16	14.1791
4515	100.28	14	14.0353
4516	100.3	13	13.6989
4517	100.32	13	13.9253
4518	100.34	14	14.3195
4519	100.36	14	14.8962
4520	100.38	18	15.6796
4521	100.4	18	16.7028
4522	100.42	18	18.0127
4523	100.44	20	19.7831
4524	100.46	21	21.7799
4525	100.48	24	24.296
4526	100.5	27	27.5211
4527	100.52	34	31.7889
4528	100.54	44	37.5413
4529	100.56	45	44.756
4530	100.58	49	52.3232
4531	100.6	54	56.6998
4532	100.62	52	54.9725
4533	100.64	45	48.7543
4534	100.66	38	41.8729
4535	100.68	35	36.9779
4536	100.7	34	34.3243
4537	100.72	35	33.5435
4538	100.74	35	34.4968
4539	100.76	36	37.0964
4540	100.78	42	40.9921
4541	100.8	53	45.3523
4542	100.82	55	47.1613
4543	100.84	51	45.6464
4544	100.86	38	42.4081
4545	100.88	41	39.9147
4546	100.9	41	39.2604
4547	100.92	41	40.1614
4548	100.94	38	40.8383
4549	100.96	40	39.2912
4550	100.98	35	35.4739
4551	101	31	31.1593
4552	101.02	28	27.7181
4553	101.04	25	25.4748
4554	101.06	25	24.3296
4555	101.08	26	24.0695
4556	101.1	25	24.6538
4557	101.12	29	25.9696
4558	101.14	28	27.5741
4559	101.16	30	28.7006
4560	101.18	31	27.9947
4561	101.2	25	25.9541
4562	101.22	24	23.622
4563	101.24	24	21.748
4564	101.26	21	20.5136
4565	101.28	20	19.9581
4566	101.3	18	19.8679
4567	101.32	21	20.264
4568	101.34	20	20.6673
4569	101.36	22	22.0909
4570	101.38	27	24.0676
4571	101.4	29	26.5774
4572	101.42	32	29.3205
4573	101.44	35	32.1247
4574	101.46	41	35.3387
4575	101.48	43	39.6748
4576	101.5	54	45.0601
4577	101.52	45	49.4784
4578	101.54	45	49.7445
4579	101.56	37	44.7794
4580	101.58	37	37.917
4581	101.6	34	31.6944
4582	101.62	28	27.0989
4583	101.64	25	24.0399
4584	101.66	22	22.0753
4585	101.68	20	20.7013
4586	101.7	21	20.241
4587	101.72	20	20.3433
4588	101.74	20	20.9357
4589	101.76	22	21.9147
4590	101.78	23	23.0771
4591	101.8	27	24.4193
4592	101.82	25	26.2398
4593	101.84	31	28.8032
4594	101.86	30	31.7159
4595	101.88	34	33.6059
4596	101.9	33	33.0449
4597	101.92	34	30.7341
4598	101.94	31	27.987
4599	101.96	32	25.7626
4600	101.98	28	24.3032
4601	102	25	23.2305
4602	102.02	23	21.9628
4603	102.04	25	20.2981
4604	102.06	20	18.7041
4605	102.08	21	17.5487
4606	102.1	19	16.878
4607	102.12	17	16.4868
4608	102.14	15	16.0509
4609	102.16	16	15.4061
4610	102.18	12	14.6408
4611	102.2	15	14.0867
4612	102.22	12	13.7714
4613	102.24	13	13.6752
4614	102.26	14	13.7242
4615	102.28	13	13.4157
4616	102.3	14	13.8702
4617	102.32	15	14.0164
4618	102.34	15	14.1913
4619	102.36	13	14.224
4620	102.38	13	13.948
4621	102.4	12	13.4127
4622	102.42	15	13.0706
4623	102.44	14	12.756
4624	102.46	11	12.6294
4625	102.48	11	12.5788
4626	102.5	12	12.4589
4627	102.52	12	12.2047
4628	102.54	12	11.9734
4629	102.56	11	11.8287
4630	102.58	12	11.7967
4631	102.6	11	11.8615
4632	102.62	12	12.0028
4633	102.64	12	12.0226
4634	102.66	11	12.5338
4635	102.68	12	13.0092
4636	102.7	13	13.6847
4637	102.72	15	14.474
4638	102.74	15	15.174
4639	102.76	16	15.4539
4640	102.78	15	15.516
4641	102.8	15	15.4088
4642	102.82	15	15.4948
4643	102.84	16	15.8906
4644	102.86	17	16.6129
4645	102.88	20	17.6267
4646	102.9	21	19.0163
4647	102.92	22	20.8112
4648	102.94	25	23.553
4649	102.96	27	26.7103
4650	102.98	34	30.9262
4651	103	37	36.1676
4652	103.02	44	41.4279
4653	103.04	60	44.4759
4654	103.06	45	43.8098
4655	103.08	43	40.712
4656	103.1	41	37.6515
4657	103.12	41	35.8515
4658	103.14	42	35.2373
4659	103.16	34	34.7016
4660	103.18	35	33.0022
4661	103.2	30	30.0813
4662	103.22	31	27.0052
4663	103.24	25	24.6111
4664	103.26	22	23.1351
4665	103.28	22	22.463
4666	103.3	23	22.4902
4667	103.32	23	23.4123
4668	103.34	24	24.8752
4669	103.36	27	27.0175
4670	103.38	31	29.3349
4671	103.4	30	30.7308
4672	103.42	30	30.4014
4673	103.44	33	28.9394
4674	103.46	31	27.6242
4675	103.48	28	27.2205
4676	103.5	28	27.6798
4677	103.52	27	28.4452
4678	103.54	31	28.927
4679	103.56	28	29.0177
4680	103.58	30	29.3271
4681	103.6	33	30.5148
4682	103.62	35	33.0106
4683	103.64	35	36.9902
4684	103.66	42	41.9549
4685	103.68	45	46.0007
4686	103.7	45	46.3345
4687	103.72	37	42.2195
4688	103.74	35	36.0141
4689	103.76	32	30.2455
4690	103.78	25	25.8645
4691	103.8	20	22.4734
4692	103.82	21	20.4
4693	103.84	20	19.0343
4694	103.86	18	18.1735
4695	103.88	15	17.7014
4696	103.9	17	17.5873
4697	103.92	17	17.7771
4698	103.94	16	18.1154
4699	103.96	18	18.9904
4700	103.98	20	20.3566
4701	104	23	22.3407
4702	104.02	25	24.8477
4703	104.04	27	27.17
4704	104.06	31	27.9662
4705	104.08	24	26.489
4706	104.1	25	23.5986
4707	104.12	20	20.6706
4708	104.14	21	18.3923
4709	104.16	18	16.6742
4710	104.18	16	15.7038
4711	104.2	15	15.1168
4712	104.22	16	14.6714
4713	104.24	14	14.1259
4714	104.26	14	14.3114
4715	104.28	14	13.6172
4716	104.3	12	12.9463
4717	104.32	12	12.5007
4718	104.34	12	12.1784
4719	104.36	11	11.9502
4720	104.38	11	12.9819
4721	104.4	13	12.9468
4722	104.42	13	12.9657
4723	104.44	14	13.0339
4724	104.46	12	12.7617
4725	104.48	12	12.945
4726	104.5	13	13.1806
4727	104.52	14	13.4788
4728	104.54	14	13.8513
4729	104.56	15	14.2961
4730	104.58	15	14.7745
4731	104.6	15	15.2068
4732	104.62	16	15.548
4733	104.64	17	16.3163
4734	104.66	17	16.7264
4735	104.68	18	17.2809
4736	104.7	19	18.021
4737	104.72	21	18.9542
4738	104.74	22	20.1207
4739	104.76	23	22.1714
4740	104.78	25	23.9895
4741	104.8	26	26.2209
4742	104.82	31	28.9504
4743	104.84	29	32.0807
4744	104.86	36	36.1037
4745	104.88	44	42.0347
4746	104.9	48	48.0244
4747	104.92	54	55.5029
4748	104.94	68	65.1249
4749	104.96	69	77.6461
4750	104.98	85	93.2061
4751	105	104	109.815
4752	105.02	119	122.504
4753	105.04	121	126.926
4754	105.06	128	125.482
4755	105.08	141	125.054
4756	105.1	164	129.701
4757	105.12	161	137.213
4758	105.14	173	139.922
4759	105.16	141	131.422
4760	105.18	134	114.243
4761	105.2	121	96.0406
4762	105.22	91	82.0736
4763	105.24	76	72.2805
4764	105.26	74	66.8814
4765	105.28	64	63.9544
4766	105.3	64	63.5345
4767	105.32	66	65.5249
4768	105.34	69	69.9843
4769	105.36	81	76.594
4770	105.38	87	83.7955
4771	105.4	91	90.0639
4772	105.42	87	91.6933
4773	105.44	98	91.9428
4774	105.46	104	94.0737
4775	105.48	116	99.2934
4776	105.5	121	105.782
4777	105.52	114	110.232
4778	105.54	142	109.872
4779	105.56	119	108.135
4780	105.58	114	109.402
4781	105.6	112	115.616
4782	105.62	121	123.674
4783	105.64	116	127.096
4784	105.66	126	120.281
4785	105.68	92	105.316
4786	105.7	73	88.9578
4787	105.72	71	75.6053
4788	105.74	46	66.1755
4789	105.76	51	60.5922
4790	105.78	54	56.9458
4791	105.8	46	54.3184
4792	105.82	48	54.1621
4793	105.84	51	55.3524
4794	105.86	56	57.8301
4795	105.88	57	61.7056
4796	105.9	69	67.5634
4797	105.92	76	74.3204
4798	105.94	89	85.2405
4799	105.96	104	99.1718
4800	105.98	121	114.226
4801	106	125	125.955
4802	106.02	111	129.969
4803	106.04	108	126.381
4804	106.06	111	120.181
4805	106.08	121	116.991
4806	106.1	111	119.807
4807	106.12	146	128.543
4808	106.14	137	139.533
4809	106.16	152	145.506
4810	106.18	146	140.429
4811	106.2	137	127.926
4812	106.22	138	115.114
4813	106.24	122	106.87
4814	106.26	103	103.557
4815	106.28	97	102.3
4816	106.3	84	98.7496
4817	106.32	89	92.994
4818	106.34	84	86.5993
4819	106.36	69	81.2889
4820	106.38	71	76.5413
4821	106.4	69	71.5008
4822	106.42	72	66.7617
4823	106.44	64	62.6439
4824	106.46	74	62.028
4825	106.48	84	64.1755
4826	106.5	83	68.8093
4827	106.52	79	74.3496
4828	106.54	84	77.4716
4829	106.56	83	75.2716
4830	106.58	88	68.7204
4831	106.6	69	61.5002
4832	106.62	64	56.234
4833	106.64	69	53.3059
4834	106.66	54	51.4067
4835	106.68	46	48.5585
4836	106.7	46	43.882
4837	106.72	41	38.3238
4838	106.74	44	33.2189
4839	106.76	36	29.1338
4840	106.78	31	25.5507
4841	106.8	26	23.1947
4842	106.82	29	20.855
4843	106.84	17	19.404
4844	106.86	19	18.2332
4845	106.88	18	17.2574
4846	106.9	22	16.8727
4847	106.92	21	16.2085
4848	106.94	22	15.6489
4849	106.96	19	14.0783
4850	106.98	18	13.7293
4851	107	17	13.4389
4852	107.02	13	13.2004
4853	107.04	16	13.0091
4854	107.06	16	12.8636
4855	107.08	15	12.274
4856	107.1	14	12.2537
4857	107.12	15	12.293
4858	107.14	15	12.3901
4859	107.16	16	12.5107
4860	107.18	15	12.3628
4861	107.2	14	12.3156
4862	107.22	13	12.1649
4863	107.24	12	11.9986
4864	107.26	12	11.8881
4865	107.28	12	11.8413
4866	107.3	13	12.0817
4867	107.32	13	12.1749
4868	107.34	12	11.7754
4869	107.36	12	12.0224
4870	107.38	12	12.3421
4871	107.4	14	12.7475
4872	107.42	13	13.2555
4873	107.44	13	13.8866
4874	107.46	12	14.6656
4875	107.48	13	15.3816
4876	107.5	14	16.5485
4877	107.52	19	17.9429
4878	107.54	23	19.5915
4879	107.56	25	21.5287
4880	107.58	27	23.8524
4881	107.6	29	27.0226
4882	107.62	31	31.4157
4883	107.64	36	36.389
4884	107.66	44	41.9873
4885	107.68	51	46.415
4886	107.7	36	47.2423
4887	107.72	32	43.7554
4888	107.74	41	37.9796
4889	107.76	32	32.3515
4890	107.78	27	27.9726
4891	107.8	33	24.8949
4892	107.82	22	22.8188
4893	107.84	26	21.4633
4894	107.86	24	20.6426
4895	107.88	23	20.2526
4896	107.9	22	20.2352
4897	107.92	22	20.5541
4898	107.94	21	21.2595
4899	107.96	22	22.1533
4900	107.98	23	23.3991
4901	108	25	24.8451
4902	108.02	26	27.1077
4903	108.04	30	29.6977
4904	108.06	34	32.4776
4905	108.08	35	34.37
4906	108.1	35	34.3542
4907	108.12	34	32.6262
4908	108.14	30	30.8963
4909	108.16	30	29.2887
4910	108.18	27	28.5959
4911	108.2	27	28.786
4912	108.22	30	29.739
4913	108.24	29	31.3711
4914	108.26	35	33.6751
4915	108.28	34	36.7475
4916	108.3	40	40.8219
4917	108.32	44	46.2942
4918	108.34	53	53.5024
4919	108.36	59	62.2582
4920	108.38	69	71.176
4921	108.4	70	77.5815
4922	108.42	75	78.6394
4923	108.44	70	73.4536
4924	108.46	61	64.2652
4925	108.48	52	54.6034
4926	108.5	52	46.1576
4927	108.52	42	40.2928
4928	108.54	41	36.5098
4929	108.56	32	33.9234
4930	108.58	30	32.4132
4931	108.6	30	31.7676
4932	108.62	34	31.875
4933	108.64	28	32.6982
4934	108.66	31	34.2669
4935	108.68	35	36.6703
4936	108.7	41	39.9989
4937	108.72	44	44.2242
4938	108.74	50	49.0632
4939	108.76	53	54.0249
4940	108.78	61	58.463
4941	108.8	63	61.5506
4942	108.82	63	62.4274
4943	108.84	60	61.1165
4944	108.86	60	59.0949
4945	108.88	63	58.253
4946	108.9	60	59.093
4947	108.92	71	60.8886
4948	108.94	64	60.7726
4949	108.96	57	56.8451
4950	108.98	48	50.0838
4951	109	45	42.9663
4952	109.02	37	37.0923
4953	109.04	27	32.7952
4954	109.06	34	29.8421
4955	109.08	29	27.9129
4956	109.1	35	26.7411
4957	109.12	28	26.0619
4958	109.14	26	25.5585
4959	109.16	29	24.9779
4960	109.18	24	24.3072
4961	109.2	25	23.5247
4962	109.22	25	23.3398
4963	109.24	24	23.1043
4964	109.26	24	24.0301
4965	109.28	25	25.6227
4966	109.3	28	27.8305
4967	109.32	31	30.0244
4968	109.34	32	31.0081
4969	109.36	30	29.9081
4970	109.38	28	27.0601
4971	109.4	24	23.761
4972	109.42	21	20.8959
4973	109.44	20	18.6959
4974	109.46	18	17.0865
4975	109.48	17	15.8597
4976	109.5	21	14.9111
4977	109.52	17	14.1601
4978	109.54	15	13.5562
4979	109.56	12	13.0331
4980	109.58	11	12.5752
4981	109.6	12	12.2481
4982	109.62	11	11.8593
4983	109.64	11	11.3678
4984	109.66	11	11.1928
4985	109.68	12	11.0467
4986	109.7	11	10.9118
4987	109.72	11	10.8022
4988	109.74	9	10.6982
4989	109.76	10	10.1722
4990	109.78	11	10.1048
4991	109.8	10	10.0511
4992	109.82	11	10.0129
4993	109.84	11	9.99023
4994	109.86	9	9.98292
4995	109.88	9	10.0035
4996	109.9	10	10.0287
4997	109.92	10	10.0719
4998	109.94	10	10.135
4999	109.96	10	10.2032
5000	109.98	15	10.4301
5001	110	11	10.5691
5002	110.02	10	10.7441
5003	110.04	10	10.957
5004	110.06	11	11.2221
5005	110.08	11	11.5634
5006	110.1	12	12.0098
5007	110.12	12	12.5739
5008	110.14	13	13.205
5009	110.16	13	13.7393
5010	110.18	13	13.7455
5011	110.2	12	13.6162
5012	110.22	13	13.3186
5013	110.24	14	13.074
5014	110.26	13	12.9363
5015	110.28	12	12.7986
5016	110.3	11	12.5377
5017	110.32	12	12.1605
5018	110.34	12	11.7763
5019	110.36	11	11.4715
5020	110.38	11	11.3393
5021	110.4	12	11.2355
5022	110.42	11	11.2086
5023	110.44	12	11.2466
5024	110.46	11	11.3462
5025	110.48	11	11.5127
5026	110.5	11	11.7593
5027	110.52	12	12.1006
5028	110.54	11	12.537
5029	110.56	12	13.0243
5030	110.58	11	13.4686
5031	110.6	12	13.7881
5032	110.62	14	14.018
5033	110.64	15	14.5056
5034	110.66	15	14.9061
5035	110.68	16	15.4545
5036	110.7	16	16.1434
5037	110.72	18	17.018
5038	110.74	21	18.1761
5039	110.76	22	19.6052
5040	110.78	22	21.1961
5041	110.8	23	21.7895
5042	110.82	23	21.1531
5043	110.84	22	19.5885
5044	110.86	18	17.8089
5045	110.88	17	16.2977
5046	110.9	16	15.1784
5047	110.92	15	14.3966
5048	110.94	14	13.8625
5049	110.96	14	13.5068
5050	110.98	13	13.2867
5051	111	14	13.179
5052	111.02	13	13.1262
5053	111.04	14	13.6283
5054	111.06	13	13.9228
5055	111.08	14	14.1966
5056	111.1	15	14.5732
5057	111.12	15	15.0608
5058	111.14	16	15.759
5059	111.16	15	16.6621
5060	111.18	16	17.7248
5061	111.2	18	18.8523
5062	111.22	20	19.4764
5063	111.24	20	19.5661
5064	111.26	20	19.3502
5065	111.28	18	19.1903
5066	111.3	19	19.3027
5067	111.32	19	19.7441
5068	111.34	20	20.5111
5069	111.36	21	21.62
5070	111.38	25	23.1405
5071	111.4	25	25.2134
5072	111.42	26	27.9268
5073	111.44	27	31.2086
5074	111.46	35	34.7872
5075	111.48	44	37.1958
5076	111.5	51	37.8613
5077	111.52	44	37.2194
5078	111.54	44	36.5379
5079	111.56	44	36.8109
5080	111.58	51	38.1093
5081	111.6	51	39.6168
5082	111.62	46	40.0331
5083	111.64	46	38.707
5084	111.66	41	36.1849
5085	111.68	33	33.9036
5086	111.7	32	32.4238
5087	111.72	34	31.8907
5088	111.74	34	32.2266
5089	111.76	43	33.3783
5090	111.78	42	35.4301
5091	111.8	42	38.6021
5092	111.82	44	43.1224
5093	111.84	44	48.8026
5094	111.86	59	54.498
5095	111.88	54	57.9646
5096	111.9	49	57.3426
5097	111.92	48	53.0326
5098	111.94	44	47.2589
5099	111.96	44	42.0806
5100	111.98	44	38.3998
5101	112	42	36.1495
5102	112.02	36	34.7216
5103	112.04	31	33.29
5104	112.06	30	31.3386
5105	112.08	29	28.9724
5106	112.1	26	26.8395
5107	112.12	26	25.2139
5108	112.14	26	24.1643
5109	112.16	26	23.6363
5110	112.18	24	23.5732
5111	112.2	24	23.9647
5112	112.22	25	24.8357
5113	112.24	27	26.197
5114	112.26	26	27.9483
5115	112.28	31	29.6766
5116	112.3	31	30.5269
5117	112.32	31	29.7115
5118	112.34	29	27.1545
5119	112.36	26	24.2495
5120	112.38	23	21.5887
5121	112.4	21	19.4682
5122	112.42	20	17.8489
5123	112.44	19	16.6044
5124	112.46	18	15.6272
5125	112.48	14	14.6153
5126	112.5	13	13.9947
5127	112.52	13	13.4922
5128	112.54	14	13.0851
5129	112.56	13	12.7574
5130	112.58	12	12.4978
5131	112.6	12	12.2981
5132	112.62	12	12.6769
5133	112.64	13	12.5815
5134	112.66	12	12.6816
5135	112.68	12	12.5578
5136	112.7	12	12.3991
5137	112.72	12	12.234
5138	112.74	13	11.6784
5139	112.76	13	11.5841
5140	112.78	11	11.4127
5141	112.8	12	11.3772
5142	112.82	11	11.3618
5143	112.84	12	11.3587
5144	112.86	12	11.3767
5145	112.88	12	11.4098
5146	112.9	11	11.3405
5147	112.92	11	11.4088
5148	112.94	11	11.4925
5149	112.96	12	12.7686
5150	112.98	12	12.9414
5151	113	13	13.1425
5152	113.02	13	13.3665
5153	113.04	15	13.6219
5154	113.06	14	14.182
5155	113.08	15	14.6261
5156	113.1	16	15.0315
5157	113.12	18	15.4877
5158	113.14	16	16.0358
5159	113.16	18	16.6783
5160	113.18	19	17.2355
5161	113.2	18	18.176
5162	113.22	20	19.2475
5163	113.24	20	20.5121
5164	113.26	23	21.9984
5165	113.28	25	23.7303
5166	113.3	26	25.7341
5167	113.32	31	28.0347
5168	113.34	41	30.6798
5169	113.36	41	33.7814
5170	113.38	42	37.5526
5171	113.4	45	42.9315
5172	113.42	51	49.1542
5173	113.44	71	56.9164
5174	113.46	83	65.4643
5175	113.48	94	72.6289
5176	113.5	74	75.6363
5177	113.52	84	73.3932
5178	113.54	69	67.5537
5179	113.56	61	60.9571
5180	113.58	54	55.6216
5181	113.6	54	52.2628
5182	113.62	50	50.7908
5183	113.64	51	50.8875
5184	113.66	52	52.2312
5185	113.68	47	54.7007
5186	113.7	63	58.3417
5187	113.72	63	63.434
5188	113.74	69	70.4968
5189	113.76	81	80.1672
5190	113.78	101	92.6895
5191	113.8	121	106.829
5192	113.82	151	118.866
5193	113.84	154	123.782
5194	113.86	136	119.727
5195	113.88	137	110.172
5196	113.9	121	99.9405
5197	113.92	111	91.0541
5198	113.94	93	82.9296
5199	113.96	82	74.654
5200	113.98	81	66.4945
5201	114	81	59.2891
5202	114.02	62	53.6257
5203	114.04	52	49.538
5204	114.06	41	46.6974
5205	114.08	46	44.6961
5206	114.1	51	43.3033
5207	114.12	44	42.518
5208	114.14	43	42.4511
5209	114.16	44	43.2617
5210	114.18	44	45.1776
5211	114.2	67	48.4619
5212	114.22	71	53.1914
5213	114.24	74	58.7351
5214	114.26	73	63.2287
5215	114.28	91	64.9429
5216	114.3	71	61.1888
5217	114.32	72	54.3135
5218	114.34	57	46.896
5219	114.36	48	40.5383
5220	114.38	49	35.1422
5221	114.4	36	31.3256
5222	114.42	31	28.6176
5223	114.44	26	26.557
5224	114.46	27	24.967
5225	114.48	24	23.7198
5226	114.5	23	22.6876
5227	114.52	23	21.7528
5228	114.54	22	20.8611
5229	114.56	21	20.0405
5230	114.58	20	19.3394
5231	114.6	17	18.7779
5232	114.62	18	18.3489
5233	114.64	18	18.0343
5234	114.66	17	17.8185
5235	114.68	17	17.694
5236	114.7	17	17.6549
5237	114.72	16	16.5443
5238	114.74	16	17.1752
5239	114.76	17	17.5244
5240	114.78	19	18.008
5241	114.8	19	18.5943
5242	114.82	20	18.9494
5243	114.84	20	19.511
5244	114.86	21	19.916
5245	114.88	21	20.4587
5246	114.9	22	21.1777
5247	114.92	24	22.1584
5248	114.94	25	23.4356
5249	114.96	25	24.9849
5250	114.98	27	26.877
5251	115	30	29.0871
5252	115.02	32	31.6571
5253	115.04	44	34.7124
5254	115.06	34	38.4815
5255	115.08	51	43.3524
5256	115.1	64	50.2756
5257	115.12	66	58.3697
5258	115.14	71	67.3025
5259	115.16	86	74.6197
5260	115.18	81	76.4377
5261	115.2	61	72.4669
5262	115.22	72	64.1719
5263	115.24	46	55.0004
5264	115.26	54	47.1397
5265	115.28	36	41.1383
5266	115.3	34	36.7185
5267	115.32	33	33.4532
5268	115.34	32	31.0382
5269	115.36	29	29.2858
5270	115.38	30	28.0827
5271	115.4	28	27.3509
5272	115.42	29	27.0471
5273	115.44	30	27.0955
5274	115.46	31	27.4793
5275	115.48	28	28.1984
5276	115.5	29	29.3103
5277	115.52	33	30.9373
5278	115.54	38	33.2767
5279	115.56	44	36.7604
5280	115.58	40	40.7928
5281	115.6	45	44.9218
5282	115.62	50	47.6773
5283	115.64	48	47.6181
5284	115.66	43	44.7065
5285	115.68	37	40.8732
5286	115.7	33	36.7341
5287	115.72	31	33.5303
5288	115.74	30	31.347
5289	115.76	30	30.0618
5290	115.78	27	29.4429
5291	115.8	30	29.3383
5292	115.82	29	29.6589
5293	115.84	28	30.3721
5294	115.86	31	31.5229
5295	115.88	32	33.1864
5296	115.9	33	35.572
5297	115.92	34	38.9215
5298	115.94	41	43.3553
5299	115.96	46	48.5303
5300	115.98	47	53.2029
5301	116	41	55.3908
5302	116.02	51	53.7595
5303	116.04	42	49.0088
5304	116.06	52	43.1829
5305	116.08	41	37.9128
5306	116.1	32	33.0448
5307	116.12	23	30.1227
5308	116.14	36	28.3215
5309	116.16	28	26.9289
5310	116.18	27	26.0199
5311	116.2	26	25.6369
5312	116.22	26	25.5046
5313	116.24	26	25.7309
5314	116.26	27	26.307
5315	116.28	23	27.2011
5316	116.3	31	28.3373
5317	116.32	22	29.6239
5318	116.34	28	31.0534
5319	116.36	31	32.7868
5320	116.38	32	35.0727
5321	116.4	43	38.0688
5322	116.42	37	41.6442
5323	116.44	43	45.2145
5324	116.46	51	47.8903
5325	116.48	52	49.1903
5326	116.5	53	49.6949
5327	116.52	56	50.6051
5328	116.54	51	52.6363
5329	116.56	49	54.9592
5330	116.58	54	56.7267
5331	116.6	51	55.7262
5332	116.62	52	51.6171
5333	116.64	36	45.8185
5334	116.66	37	40.1477
5335	116.68	41	35.4763
5336	116.7	32	31.9385
5337	116.72	28	29.3941
5338	116.74	27	27.583
5339	116.76	24	26.273
5340	116.78	22	25.2838
5341	116.8	21	24.5055
5342	116.82	22	23.9149
5343	116.84	23	23.5441
5344	116.86	24	23.4217
5345	116.88	25	23.5483
5346	116.9	24	23.9331
5347	116.92	24	24.5872
5348	116.94	22	25.0811
5349	116.96	31	26.5046
5350	116.98	32	28.4688
5351	117	32	31.0066
5352	117.02	32	33.8938
5353	117.04	35	36.4987
5354	117.06	37	37.9921
5355	117.08	39	37.995
5356	117.1	36	36.8206
5357	117.12	34	34.9019
5358	117.14	31	32.4005
5359	117.16	30	29.5349
5360	117.18	27	26.6436
5361	117.2	25	24.1135
5362	117.22	21	22.0804
5363	117.24	21	20.5111
5364	117.26	20	19.2793
5365	117.28	19	18.3559
5366	117.3	17	17.6455
5367	117.32	20	17.1061
5368	117.34	16	16.71
5369	117.36	14	16.4454
5370	117.38	14	16.3587
5371	117.4	15	16.0699
5372	117.42	16	16.1232
5373	117.44	14	16.2453
5374	117.46	14	16.4297
5375	117.48	16	16.6995
5376	117.5	21	17.1117
5377	117.52	22	17.2649
5378	117.54	21	18.1587
5379	117.56	20	19.2359
5380	117.58	28	20.248
5381	117.6	24	20.7886
5382	117.62	20	20.5404
5383	117.64	22	19.5572
5384	117.66	21	18.2148
5385	117.68	22	16.8974
5386	117.7	19	15.8757
5387	117.72	17	15.0252
5388	117.74	18	14.4008
5389	117.76	16	13.9291
5390	117.78	16	13.5657
5391	117.8	17	13.2836
5392	117.82	17	13.0671
5393	117.84	17	12.9378
5394	117.86	13	12.8301
5395	117.88	13	12.7667
5396	117.9	12	12.7382
5397	117.92	12	12.7346
5398	117.94	14	12.7504
5399	117.96	13	12.7918
5400	117.98	12	12.8755
5401	118	13	12.7896
5402	118.02	12	13.0285
5403	118.04	13	13.3273
5404	118.06	13	13.6518
5405	118.08	14	13.7833
5406	118.1	14	13.901
5407	118.12	14	13.8584
5408	118.14	13	13.7356
5409	118.16	14	13.6674
5410	118.18	13	13.6521
5411	118.2	14	13.7551
5412	118.22	13	13.996
5413	118.24	15	14.3868
5414	118.26	14	14.9113
5415	118.28	15	15.482
5416	118.3	15	15.9151
5417	118.32	16	16.0087
5418	118.34	16	15.7802
5419	118.36	16	15.5849
5420	118.38	14	15.0434
5421	118.4	16	14.666
5422	118.42	16	14.3898
5423	118.44	14	14.2492
5424	118.46	15	14.2163
5425	118.48	16	14.3133
5426	118.5	15	14.455
5427	118.52	14	14.6828
5428	118.54	15	15.0256
5429	118.56	14	15.4475
5430	118.58	16	16.0404
5431	118.6	16	16.8563
5432	118.62	17	17.5585
5433	118.64	16	17.9711
5434	118.66	18	17.9401
5435	118.68	18	17.5506
5436	118.7	18	17.0529
5437	118.72	17	16.6654
5438	118.74	17	16.5512
5439	118.76	16	16.5317
5440	118.78	16	16.5647
5441	118.8	17	16.5495
5442	118.82	17	16.415
5443	118.84	17	16.3483
5444	118.86	16	16.1575
5445	118.88	16	16.102
5446	118.9	16	16.1582
5447	118.92	15	16.3453
5448	118.94	16	16.6399
5449	118.96	16	17.0297
5450	118.98	17	17.4485
5451	119	17	17.9255
5452	119.02	18	18.507
5453	119.04	16	19.2502
5454	119.06	17	20.1657
5455	119.08	21	21.3342
5456	119.1	22	22.6056
5457	119.12	23	23.8983
5458	119.14	25	25.1313
5459	119.16	26	26.3491
5460	119.18	27	27.7346
5461	119.2	30	29.5279
5462	119.22	33	31.9631
5463	119.24	35	35.2371
5464	119.26	44	39.2276
5465	119.28	48	43.4557
5466	119.3	49	47.0092
5467	119.32	47	48.6514
5468	119.34	43	47.8001
5469	119.36	43	44.9769
5470	119.38	42	41.3498
5471	119.4	40	37.9109
5472	119.42	35	35.0976
5473	119.44	27	32.9023
5474	119.46	31	31.1846
5475	119.48	27	29.8942
5476	119.5	31	29.05
5477	119.52	31	28.6261
5478	119.54	26	28.4745
5479	119.56	27	28.3638
5480	119.58	27	28.1359
5481	119.6	26	27.859
5482	119.62	31	27.6461
5483	119.64	29	28.1296
5484	119.66	28	28.7896
5485	119.68	30	29.872
5486	119.7	31	31.2352
5487	119.72	32	32.683
5488	119.74	37	34.0802
5489	119.76	34	35.3579
5490	119.78	44	36.2953
5491	119.8	34	36.5517
5492	119.82	34	35.7396
5493	119.84	36	33.8971
5494	119.86	36	31.4831
5495	119.88	32	29.0485
5496	119.9	31	27.221
5497	119.92	27	25.6009
5498	119.94	28	24.2309
5499	119.96	27	23.1185
5500	119.98	24	22.2909
5501	120	23	21.6838
5502	120.02	23	21.2748
5503	120.04	22	20.9618
5504	120.06	21	20.6287
5505	120.08	21	20.2338
5506	120.1	21	19.7847
5507	120.12	20	19.5998
5508	120.14	21	19.4556
5509	120.16	22	19.4981
5510	120.18	20	19.6726
5511	120.2	20	19.8612
5512	120.22	21	19.9352
5513	120.24	19	19.8388
5514	120.26	19	19.6143
5515	120.28	19	19.2824
5516	120.3	20	18.731
5517	120.32	17	18.6271
5518	120.34	18	18.6156
5519	120.36	18	18.8164
5520	120.38	19	19.3063
5521	120.4	20	19.8008
5522	120.42	19	20.4286
5523	120.44	20	21.1846
5524	120.46	21	22.1004
5525	120.48	21	23.2351
5526	120.5	22	24.6542
5527	120.52	28	26.4844
5528	120.54	31	28.8259
5529	120.56	34	31.5975
5530	120.58	35	34.6349
5531	120.6	39	37.2309
5532	120.62	44	38.572
5533	120.64	43	38.2479
5534	120.66	39	36.6507
5535	120.68	34	34.6434
5536	120.7	34	32.9425
5537	120.72	30	31.8012
5538	120.74	30	31.4258
5539	120.76	26	31.6959
5540	120.78	31	32.65
5541	120.8	32	34.2212
5542	120.82	36	36.7273
5543	120.84	34	39.767
5544	120.86	43	42.7588
5545	120.88	36	44.6902
5546	120.9	36	44.7527
5547	120.92	36	42.9249
5548	120.94	38	40.0272
5549	120.96	34	36.965
5550	120.98	34	34.3228
5551	121	29	32.3025
5552	121.02	30	30.9337
5553	121.04	34	30.2001
5554	121.06	31	30.0097
5555	121.08	33	30.2476
5556	121.1	31	30.5452
5557	121.12	32	30.4644
5558	121.14	29	29.7113
5559	121.16	21	28.3728
5560	121.18	25	26.825
5561	121.2	24	25.434
5562	121.22	25	24.3487
5563	121.24	24	23.6816
5564	121.26	23	23.378
5565	121.28	24	23.4159
5566	121.3	24	23.84
5567	121.32	25	24.6531
5568	121.34	25	25.7966
5569	121.36	26	27.0282
5570	121.38	27	27.9076
5571	121.4	28	27.9985
5572	121.42	28	27.0934
5573	121.44	24	25.4865
5574	121.46	23	23.6319
5575	121.48	19	21.8767
5576	121.5	17	20.3588
5577	121.52	20	19.0881
5578	121.54	21	18.0324
5579	121.56	20	17.1582
5580	121.58	17	16.4181
5581	121.6	16	15.8121
5582	121.62	21	15.3016
5583	121.64	19	14.6069
5584	121.66	14	14.2473
5585	121.68	14	13.9411
5586	121.7	14	13.681
5587	121.72	11	13.4615
5588	121.74	12	13.2788
5589	121.76	12	13.1304
5590	121.78	13	13.0127
5591	121.8	14	12.9196
5592	121.82	14	12.8385
5593	121.84	14	12.7518
5594	121.86	11	12.6455
5595	121.88	11	12.5198
5596	121.9	11	12.1153
5597	121.92	12	12.4059
5598	121.94	13	12.3297
5599	121.96	12	12.2713
5600	121.98	12	12.2293
5601	122	9	12.1772
5602	122.02	11	12.1623
5603	122.04	12	12.1583
5604	122.06	12	12.1646
5605	122.08	13	12.1813
5606	122.1	12	12.2014
5607	122.12	11	12.2396
5608	122.14	11	12.1553
5609	122.16	12	12.2213
5610	122.18	12	12.2987
5611	122.2	11	12.3878
5612	122.22	12	12.4892
5613	122.24	12	12.6043
5614	122.26	12	12.7363
5615	122.28	11	12.8901
5616	122.3	11	13.0733
5617	122.32	12	13.2943
5618	122.34	13	13.5582
5619	122.36	13	13.8621
5620	122.38	14	14.1867
5621	122.4	14	14.4889
5622	122.42	15	14.5711
5623	122.44	17	14.8578
5624	122.46	18	14.8396
5625	122.48	17	14.7707
5626	122.5	17	14.7249
5627	122.52	16	14.7358
5628	122.54	14	14.8437
5629	122.56	14	15.0368
5630	122.58	15	15.3207
5631	122.6	14	15.6788
5632	122.62	14	16.1221
5633	122.64	14	16.6569
5634	122.66	14	17.2896
5635	122.68	17	18.0265
5636	122.7	19	18.87
5637	122.72	19	19.8205
5638	122.74	20	20.8772
5639	122.76	23	22.0467
5640	122.78	23	23.7955
5641	122.8	24	25.322
5642	122.82	25	27.1657
5643	122.84	30	29.4926
5644	122.86	32	32.5844
5645	122.88	37	36.3359
5646	122.9	47	40.6474
5647	122.92	54	44.7837
5648	122.94	44	47.5085
5649	122.96	46	47.7028
5650	122.98	43	45.2423
5651	123	32	41.1245
5652	123.02	26	36.6644
5653	123.04	34	32.7312
5654	123.06	36	29.6291
5655	123.08	21	27.3056
5656	123.1	26	25.5893
5657	123.12	26	24.3033
5658	123.14	21	23.3279
5659	123.16	16	22.5903
5660	123.18	21	22.0505
5661	123.2	17	21.688
5662	123.22	18	21.4891
5663	123.24	19	21.442
5664	123.26	21	21.5353
5665	123.28	22	21.76
5666	123.3	22	22.3312
5667	123.32	21	22.8396
5668	123.34	20	23.532
5669	123.36	24	24.4761
5670	123.38	28	25.7574
5671	123.4	27	27.4924
5672	123.42	34	29.5692
5673	123.44	33	31.8044
5674	123.46	38	33.7098
5675	123.48	34	34.6638
5676	123.5	34	34.4214
5677	123.52	34	33.2238
5678	123.54	29	31.6855
5679	123.56	28	30.3464
5680	123.58	24	29.4673
5681	123.6	24	29.0756
5682	123.62	28	29.086
5683	123.64	27	29.4005
5684	123.66	28	29.9706
5685	123.68	27	30.8205
5686	123.7	29	32.041
5687	123.72	36	33.7756
5688	123.74	44	36.1817
5689	123.76	53	39.3476
5690	123.78	58	43.1304
5691	123.8	54	48.4462
5692	123.82	63	51.3711
5693	123.84	65	52.3442
5694	123.86	61	51.1119
5695	123.88	51	48.3252
5696	123.9	43	44.9102
5697	123.92	41	41.4581
5698	123.94	42	38.2012
5699	123.96	36	35.2519
5700	123.98	32	32.7156
5701	124	28	30.1677
5702	124.02	29	28.7364
5703	124.04	27	27.5246
5704	124.06	23	26.6356
5705	124.08	22	26.0146
5706	124.1	29	25.6207
5707	124.12	26	25.4229
5708	124.14	21	25.3927
5709	124.16	28	25.505
5710	124.18	28	25.7452
5711	124.2	34	26.1179
5712	124.22	26	26.6539
5713	124.24	28	27.4125
5714	124.26	28	28.4571
5715	124.28	28	29.8704
5716	124.3	38	31.6889
5717	124.32	38	33.8325
5718	124.34	37	36.7548
5719	124.36	49	38.5086
5720	124.38	57	39.3524
5721	124.4	47	39.2001
5722	124.42	44	38.3907
5723	124.44	41	37.384
5724	124.46	41	36.4758
5725	124.48	36	35.7945
5726	124.5	36	35.4151
5727	124.52	41	35.4109
5728	124.54	36	35.6014
5729	124.56	26	36.473
5730	124.58	36	37.8674
5731	124.6	37	39.59
5732	124.62	41	41.7033
5733	124.64	39	44.1861
5734	124.66	44	47.0202
5735	124.68	44	50.2174
5736	124.7	61	53.8355
5737	124.72	54	58.7613
5738	124.74	71	63.9255
5739	124.76	64	70.4597
5740	124.78	64	78.8858
5741	124.8	84	89.5077
5742	124.82	91	101.958
5743	124.84	141	114.541
5744	124.86	132	124.129
5745	124.88	122	127.322
5746	124.9	117	122.366
5747	124.92	116	112.006
5748	124.94	101	99.3858
5749	124.96	86	87.5171
5750	124.98	86	77.9043
5751	125	76	70.7211
5752	125.02	57	65.841
5753	125.04	67	62.6723
5754	125.06	51	60.706
5755	125.08	52	59.4
5756	125.1	52	58.1901
5757	125.12	62	56.6474
5758	125.14	56	54.6952
5759	125.16	46	52.6179
5760	125.18	41	50.8038
5761	125.2	42	49.5181
5762	125.22	37	48.8508
5763	125.24	44	48.7883
5764	125.26	52	49.6616
5765	125.28	51	50.8303
5766	125.3	51	52.7444
5767	125.32	61	55.6001
5768	125.34	56	59.5926
5769	125.36	81	64.7351
5770	125.38	82	70.5785
5771	125.4	74	75.9673
5772	125.42	73	79.2207
5773	125.44	71	79.0228
5774	125.46	74	75.2188
5775	125.48	71	69.6459
5776	125.5	66	63.9656
5777	125.52	64	59.0175
5778	125.54	61	55.3519
5779	125.56	54	53.0445
5780	125.58	44	51.8306
5781	125.6	54	51.4594
5782	125.62	51	51.6897
5783	125.64	52	52.2941
5784	125.66	54	53.1006
5785	125.68	51	54.104
5786	125.7	52	55.5402
5787	125.72	51	57.7906
5788	125.74	54	61.1043
5789	125.76	54	65.2796
5790	125.78	53	69.4192
5791	125.8	42	72.018
5792	125.82	51	71.6803
5793	125.84	54	68.0947
5794	125.86	41	62.2806
5795	125.88	36	55.7997
5796	125.9	44	49.8078
5797	125.92	34	44.8435
5798	125.94	34	40.9531
5799	125.96	32	37.9516
5800	125.98	31	34.1861
5801	126	42	32.3815
5802	126.02	31	30.9362
5803	126.04	24	29.7752
5804	126.06	31	28.9435
5805	126.08	21	28.2566
5806	126.1	24	27.7796
5807	126.12	22	27.4977
5808	126.14	22	27.3957
5809	126.16	22	27.8593
5810	126.18	26	28.0997
5811	126.2	29	28.6008
5812	126.22	27	29.0597
5813	126.24	31	29.9768
5814	126.26	31	31.2753
5815	126.28	34	33.0585
5816	126.3	33	35.3656
5817	126.32	32	38.0675
5818	126.34	34	40.7443
5819	126.36	36	42.7017
5820	126.38	32	43.2548
5821	126.4	42	42.1952
5822	126.42	32	39.9595
5823	126.44	31	37.2907
5824	126.46	31	34.8358
5825	126.48	32	32.9025
5826	126.5	37	31.5929
5827	126.52	33	30.8885
5828	126.54	23	30.0071
5829	126.56	18	30.3061
5830	126.58	33	30.8543
5831	126.6	36	31.3404
5832	126.62	34	31.3853
5833	126.64	36	30.7322
5834	126.66	23	29.4246
5835	126.68	24	27.7648
5836	126.7	32	26.1018
5837	126.72	23	24.8579
5838	126.74	28	23.7252
5839	126.76	23	22.9241
5840	126.78	26	22.2333
5841	126.8	23	21.8174
5842	126.82	26	21.5497
5843	126.84	25	21.4089
5844	126.86	23	21.3877
5845	126.88	27	21.4885
5846	126.9	27	21.719
5847	126.92	27	22.0865
5848	126.94	27	21.931
5849	126.96	19	22.583
5850	126.98	18	23.3265
5851	127	21	24.118
5852	127.02	23	24.9393
5853	127.04	24	25.7741
5854	127.06	23	26.6899
5855	127.08	24	27.7307
5856	127.1	29	28.9878
5857	127.12	28	30.5287
5858	127.14	34	32.4037
5859	127.16	35	34.6262
5860	127.18	39	37.1674
5861	127.2	44	39.9642
5862	127.22	41	42.9346
5863	127.24	40	45.8954
5864	127.26	38	48.4082
5865	127.28	43	49.7996
5866	127.3	41	49.5041
5867	127.32	41	47.4783
5868	127.34	37	44.223
5869	127.36	34	40.4429
5870	127.38	34	36.7428
5871	127.4	29	33.4898
5872	127.42	34	30.8208
5873	127.44	19	28.7336
5874	127.46	18	27.0987
5875	127.48	21	25.8293
5876	127.5	23	24.8389
5877	127.52	22	23.7395
5878	127.54	25	23.1502
5879	127.56	19	22.6955
5880	127.58	18	22.342
5881	127.6	20	22.067
5882	127.62	22	21.8599
5883	127.64	20	21.7355
5884	127.66	21	21.6941
5885	127.68	20	21.7584
5886	127.7	19	21.9481
5887	127.72	20	22.2931
5888	127.74	18	22.839
5889	127.76	23	23.4775
5890	127.78	27	24.5882
5891	127.8	25	25.9901
5892	127.82	28	27.5555
5893	127.84	27	28.9927
5894	127.86	28	29.9036
5895	127.88	30	29.9686
5896	127.9	30	29.1422
5897	127.92	28	27.6573
5898	127.94	26	25.863
5899	127.96	22	24.0639
5900	127.98	26	22.4552
5901	128	22	21.1155
5902	128.02	23	20.0522
5903	128.04	19	19.2072
5904	128.06	18	18.5386
5905	128.08	17	18.0066
5906	128.1	19	17.5835
5907	128.12	18	17.248
5908	128.14	17	16.9751
5909	128.16	15	16.7324
5910	128.18	19	16.5189
5911	128.2	17	16.2915
5912	128.22	13	16.0285
5913	128.24	15	15.725
5914	128.26	15	15.3946
5915	128.28	15	15.0646
5916	128.3	14	14.761
5917	128.32	14	14.5794
5918	128.34	15	14.3635
5919	128.36	13	14.1076
5920	128.38	15	13.9674
5921	128.4	14	13.854
5922	128.42	13	13.763
5923	128.44	14	13.3097
5924	128.46	13	13.2731
5925	128.48	12	13.2592
5926	128.5	14	13.1881
5927	128.52	14	13.234
5928	128.54	13	13.3095
5929	128.56	14	13.4066
5930	128.58	13	13.5044
5931	128.6	14	13.5718
5932	128.62	13	13.5809
5933	128.64	14	13.5246
5934	128.66	14	13.4234
5935	128.68	13	13.3119
5936	128.7	14	13.2186
5937	128.72	14	13.1543
5938	128.74	14	13.1215
5939	128.76	14	13.0961
5940	128.78	13	13.0784
5941	128.8	14	13.0444
5942	128.82	12	12.9852
5943	128.84	13	12.9011
5944	128.86	13	12.8022
5945	128.88	13	12.703
5946	128.9	12	12.6157
5947	128.92	12	12.5872
5948	128.94	13	12.5386
5949	128.96	12	12.5077
5950	128.98	12	12.4917
5951	129	13	12.4886
5952	129.02	13	12.4974
5953	129.04	14	12.3282
5954	129.06	13	12.368
5955	129.08	13	12.4227
5956	129.1	14	12.4535
5957	129.12	13	12.5479
5958	129.14	13	12.9756
5959	129.16	13	13.119
5960	129.18	12	13.2702
5961	129.2	12	13.415
5962	129.22	12	13.5402
5963	129.24	13	13.6425
5964	129.26	14	13.7312
5965	129.28	13	13.9359
5966	129.3	13	14.0448
5967	129.32	15	14.1786
5968	129.34	14	14.3453
5969	129.36	15	14.5473
5970	129.38	14	14.8165
5971	129.4	15	15.1493
5972	129.42	18	15.5933
5973	129.44	17	16.1369
5974	129.46	16	16.7485
5975	129.48	19	17.3448
5976	129.5	18	17.792
5977	129.52	18	17.957
5978	129.54	19	17.7866
5979	129.56	17	17.3452
5980	129.58	15	16.7722
5981	129.6	14	16.201
5982	129.62	15	15.7113
5983	129.64	16	15.3306
5984	129.66	14	15.0527
5985	129.68	15	14.8585
5986	129.7	14	14.7276
5987	129.72	14	14.6445
5988	129.74	15	14.7538
5989	129.76	14	14.7462
5990	129.78	14	14.7697
5991	129.8	14	14.8073
5992	129.82	14	14.894
5993	129.84	16	15.0137
5994	129.86	14	15.1676
5995	129.88	16	15.357
5996	129.9	16	15.6423
5997	129.92	17	15.9123
5998	129.94	15	16.2285
5999	129.96	15	16.5943
6000	129.98	16	17.0293
6001	130	17	17.5422
6002	130.02	16	18.1386
6003	130.04	18	18.8403
6004	130.06	17	19.6358
6005	130.08	15	20.497
6006	130.1	21	21.3682
6007	130.12	17	22.1841
6008	130.14	27	22.901
6009	130.16	24	23.538
6010	130.18	27	24.1813
6011	130.2	23	24.9565
6012	130.22	27	25.9905
6013	130.24	27	27.3859
6014	130.26	29	29.4519
6015	130.28	30	31.6394
6016	130.3	34	33.9851
6017	130.32	34	36.0854
6018	130.34	35	37.4384
6019	130.36	47	37.6783
6020	130.38	43	36.8252
6021	130.4	41	35.2862
6022	130.42	37	33.5903
6023	130.44	33	32.1578
6024	130.46	33	31.1244
6025	130.48	32	30.3928
6026	130.5	27	29.7281
6027	130.52	29	28.8986
6028	130.54	30	27.8084
6029	130.56	28	26.5256
6030	130.58	27	25.2097
6031	130.6	26	24.0062
6032	130.62	23	22.9944
6033	130.64	23	22.1951
6034	130.66	18	21.5918
6035	130.68	18	21.1538
6036	130.7	21	20.8484
6037	130.72	17	20.6506
6038	130.74	17	20.4647
6039	130.76	18	20.4406
6040	130.78	17	20.4986
6041	130.8	19	20.6508
6042	130.82	18	20.9195
6043	130.84	21	21.3371
6044	130.86	22	21.9381
6045	130.88	22	22.8712
6046	130.9	24	23.8678
6047	130.92	21	24.962
6048	130.94	24	25.9716
6049	130.96	28	26.6583
6050	130.98	34	26.8369
6051	131	24	26.5255
6052	131.02	26	25.8311
6053	131.04	33	25.046
6054	131.06	26	24.3797
6055	131.08	27	23.9257
6056	131.1	24	23.6597
6057	131.12	23	23.4789
6058	131.14	22	23.2672
6059	131.16	28	22.9598
6060	131.18	23	22.5717
6061	131.2	24	22.1705
6062	131.22	18	21.8288
6063	131.24	20	21.592
6064	131.26	20	21.4753
6065	131.28	17	21.477
6066	131.3	16	21.6669
6067	131.32	17	21.9021
6068	131.34	21	22.2765
6069	131.36	23	22.7901
6070	131.38	22	23.5757
6071	131.4	26	24.6403
6072	131.42	38	25.9961
6073	131.44	30	27.5661
6074	131.46	31	29.1371
6075	131.48	30	30.3654
6076	131.5	34	30.8736
6077	131.52	33	30.4516
6078	131.54	23	29.1908
6079	131.56	26	27.4225
6080	131.58	24	25.5312
6081	131.6	22	23.5009
6082	131.62	23	22.0705
6083	131.64	22	20.9209
6084	131.66	20	20.0266
6085	131.68	21	19.3296
6086	131.7	13	18.7756
6087	131.72	17	18.3258
6088	131.74	17	17.9555
6089	131.76	22	17.5381
6090	131.78	20	17.2948
6091	131.8	14	17.107
6092	131.82	16	17.5764
6093	131.84	17	17.5125
6094	131.86	18	17.4983
6095	131.88	17	17.5308
6096	131.9	18	17.6069
6097	131.92	17	17.7261
6098	131.94	19	17.9284
6099	131.96	18	18.1477
6100	131.98	18	18.4367
6101	132	20	18.8179
6102	132.02	21	19.3186
6103	132.04	20	19.9618
6104	132.06	22	20.7521
6105	132.08	23	21.6507
6106	132.1	24	22.5554
6107	132.12	25	23.306
6108	132.14	26	23.7327
6109	132.16	28	23.7476
6110	132.18	30	23.4017
6111	132.2	26	22.8512
6112	132.22	23	22.2613
6113	132.24	21	21.5826
6114	132.26	21	21.1271
6115	132.28	20	20.7117
6116	132.3	22	20.3072
6117	132.32	19	19.9136
6118	132.34	20	19.5533
6119	132.36	21	19.2528
6120	132.38	17	19.0297
6121	132.4	20	18.8352
6122	132.42	18	18.7872
6123	132.44	20	18.8328
6124	132.46	19	19.2801
6125	132.48	20	19.5498
6126	132.5	20	19.9392
6127	132.52	18	20.4387
6128	132.54	21	21.0077
6129	132.56	22	21.5684
6130	132.58	22	22.0159
6131	132.6	23	22.2617
6132	132.62	22	22.2848
6133	132.64	22	22.1515
6134	132.66	21	21.9626
6135	132.68	23	21.8266
6136	132.7	23	21.812
6137	132.72	22	21.9486
6138	132.74	22	22.2404
6139	132.76	21	22.6788
6140	132.78	22	23.0091
6141	132.8	23	23.7126
6142	132.82	23	24.5272
6143	132.84	22	25.4432
6144	132.86	22	26.4478
6145	132.88	27	27.5275
6146	132.9	28	28.6731
6147	132.92	29	29.8966
6148	132.94	31	31.2445
6149	132.96	32	32.8121
6150	132.98	33	34.7416
6151	133	39	37.1834
6152	133.02	46	40.2379
6153	133.04	51	43.8717
6154	133.06	62	47.8242
6155	133.08	44	51.5262
6156	133.1	41	54.1855
6157	133.12	40	55.0824
6158	133.14	51	53.9436
6159	133.16	43	51.3387
6160	133.18	33	47.6557
6161	133.2	42	43.7673
6162	133.22	42	40.2247
6163	133.24	32	37.2197
6164	133.26	31	34.7295
6165	133.28	42	32.6602
6166	133.3	32	31.0776
6167	133.32	27	29.606
6168	133.34	27	28.3572
6169	133.36	26	27.3038
6170	133.38	16	26.4244
6171	133.4	23	25.7001
6172	133.42	33	25.8061
6173	133.44	27	25.2533
6174	133.46	28	24.9458
6175	133.48	27	24.7483
6176	133.5	22	24.6507
6177	133.52	21	24.6441
6178	133.54	22	24.7225
6179	133.56	23	24.8861
6180	133.58	25	25.1117
6181	133.6	26	25.4896
6182	133.62	31	26.0256
6183	133.64	27	26.7728
6184	133.66	31	27.7896
6185	133.68	33	29.1163
6186	133.7	34	30.7457
6187	133.72	41	32.5678
6188	133.74	35	34.3358
6189	133.76	27	35.6886
6190	133.78	36	36.2556
6191	133.8	35	35.8438
6192	133.82	32	34.6594
6193	133.84	33	32.8449
6194	133.86	33	30.8472
6195	133.88	32	28.9902
6196	133.9	29	27.3517
6197	133.92	30	26.1194
6198	133.94	27	25.1818
6199	133.96	28	24.4769
6200	133.98	27	24.0207
6201	134	28	23.6088
6202	134.02	21	23.2905
6203	134.04	26	23.053
6204	134.06	22	22.8944
6205	134.08	26	23.1568
6206	134.1	22	23.1746
6207	134.12	24	23.2811
6208	134.14	26	23.4788
6209	134.16	27	23.7689
6210	134.18	26	24.1517
6211	134.2	26	24.6272
6212	134.22	27	25.1949
6213	134.24	31	25.8374
6214	134.26	22	26.5919
6215	134.28	23	27.4465
6216	134.3	31	28.4136
6217	134.32	32	29.5138
6218	134.34	26	30.7831
6219	134.36	42	32.267
6220	134.38	42	34.0191
6221	134.4	43	36.0928
6222	134.42	43	38.5107
6223	134.44	51	40.65
6224	134.46	42	43.5599
6225	134.48	52	46.3963
6226	134.5	46	48.8512
6227	134.52	56	50.6857
6228	134.54	51	51.8664
6229	134.56	62	52.6078
6230	134.58	51	53.2249
6231	134.6	46	54.1195
6232	134.62	56	56.4847
6233	134.64	52	58.313
6234	134.66	67	60.5662
6235	134.68	51	63.17
6236	134.7	67	66.0223
6237	134.72	68	68.8682
6238	134.74	71	71.1993
6239	134.76	72	72.3217
6240	134.78	72	71.6416
6241	134.8	69	69.0252
6242	134.82	61	64.9099
6243	134.84	64	60.0597
6244	134.86	54	55.2267
6245	134.88	46	50.914
6246	134.9	43	47.3311
6247	134.92	48	44.4901
6248	134.94	47	42.2919
6249	134.96	43	40.6061
6250	134.98	34	39.3109
6251	135	38	38.3195
6252	135.02	36	37.6522
6253	135.04	43	37.1475
6254	135.06	32	36.8758
6255	135.08	36	36.8521
6256	135.1	39	37.0863
6257	135.12	41	37.5682
6258	135.14	42	37.9599
6259	135.16	41	38.7377
6260	135.18	42	39.4615
6261	135.2	44	39.9927
6262	135.22	42	40.2659
6263	135.24	44	40.3317
6264	135.26	41	40.3335
6265	135.28	44	40.4366
6266	135.3	44	41.2743
6267	135.32	34	41.8842
6268	135.34	41	42.7544
6269	135.36	41	43.862
6270	135.38	48	45.1641
6271	135.4	46	46.5881
6272	135.42	46	47.9633
6273	135.44	54	49.0012
6274	135.46	41	49.3725
6275	135.48	46	48.8702
6276	135.5	51	47.5395
6277	135.52	44	45.6669
6278	135.54	49	43.6383
6279	135.56	49	41.779
6280	135.58	44	40.2898
6281	135.6	41	39.245
6282	135.62	37	38.6331
6283	135.64	38	38.4032
6284	135.66	41	38.4915
6285	135.68	41	38.8372
6286	135.7	41	39.4257
6287	135.72	41	40.151
6288	135.74	42	41.0201
6289	135.76	41	42.0212
6290	135.78	41	43.16
6291	135.8	41	44.4681
6292	135.82	48	46.0103
6293	135.84	47	47.8957
6294	135.86	50	50.2728
6295	135.88	51	53.1039
6296	135.9	57	56.9498
6297	135.92	59	61.7802
6298	135.94	79	67.4543
6299	135.96	91	73.5657
6300	135.98	96	79.3342
6301	136	121	83.6657
6302	136.02	116	85.5058
6303	136.04	111	84.1588
6304	136.06	106	80.2009
6305	136.08	91	74.8579
6306	136.1	92	68.3815
6307	136.12	73	62.1375
6308	136.14	63	56.6772
6309	136.16	62	51.5298
6310	136.18	61	47.9923
6311	136.2	56	45.2275
6312	136.22	43	43.0619
6313	136.24	41	41.3444
6314	136.26	39	39.9622
6315	136.28	37	38.8494
6316	136.3	34	37.9726
6317	136.32	38	37.3195
6318	136.34	33	36.8822
6319	136.36	34	36.6442
6320	136.38	28	36.5662
6321	136.4	29	36.5811
6322	136.42	28	36.6052
6323	136.44	31	36.5677
6324	136.46	38	36.4393
6325	136.48	32	36.2488
6326	136.5	33	36.0689
6327	136.52	31	35.9987
6328	136.54	43	36.1115
6329	136.56	38	36.4998
6330	136.58	44	37.2453
6331	136.6	41	38.2948
6332	136.62	44	39.9707
6333	136.64	43	42.1433
6334	136.66	54	44.711
6335	136.68	54	47.4116
6336	136.7	61	49.8145
6337	136.72	63	51.3831
6338	136.74	65	51.8185
6339	136.76	71	50.5896
6340	136.78	59	48.217
6341	136.8	54	45.3369
6342	136.82	44	42.0277
6343	136.84	44	38.9128
6344	136.86	43	36.2151
6345	136.88	44	33.6719
6346	136.9	38	31.9121
6347	136.92	35	30.5229
6348	136.94	32	29.4207
6349	136.96	30	28.5352
6350	136.98	28	27.8144
6351	137	25	27.2288
6352	137.02	24	26.7638
6353	137.04	27	26.429
6354	137.06	25	26.1947
6355	137.08	22	26.0696
6356	137.1	26	26.2591
6357	137.12	29	26.3004
6358	137.14	31	26.3733
6359	137.16	26	26.445
6360	137.18	22	26.5005
6361	137.2	25	26.5477
6362	137.22	28	26.6111
6363	137.24	34	26.7233
6364	137.26	29	26.898
6365	137.28	30	27.1526
6366	137.3	34	27.4966
6367	137.32	23	27.9425
6368	137.34	24	28.5143
6369	137.36	27	29.3523
6370	137.38	33	30.3126
6371	137.4	37	31.5814
6372	137.42	34	33.185
6373	137.44	34	35.1752
6374	137.46	44	36.5183
6375	137.48	44	39.1571
6376	137.5	54	41.6147
6377	137.52	55	43.5467
6378	137.54	56	44.5275
6379	137.56	47	44.3008
6380	137.58	51	42.9025
6381	137.6	44	40.6495
6382	137.62	39	37.9826
6383	137.64	34	35.3096
6384	137.66	32	32.9007
6385	137.68	26	30.8821
6386	137.7	34	29.2752
6387	137.72	29	28.0183
6388	137.74	29	27.0524
6389	137.76	27	26.3085
6390	137.78	27	25.739
6391	137.8	28	25.2909
6392	137.82	28	25.0552
6393	137.84	29	24.8047
6394	137.86	28	24.6399
6395	137.88	29	24.49
6396	137.9	23	24.4947
6397	137.92	26	24.58
6398	137.94	27	24.7427
6399	137.96	28	24.9737
6400	137.98	27	25.2642
6401	138	28	25.6068
6402	138.02	31	26.0022
6403	138.04	28	26.4636
6404	138.06	31	27.0203
6405	138.08	28	27.7147
6406	138.1	32	28.6488
6407	138.12	31	30.1062
6408	138.14	38	31.5381
6409	138.16	42	33.2575
6410	138.18	31	35.2269
6411	138.2	41	36.8282
6412	138.22	62	39.1921
6413	138.24	54	40.8901
6414	138.26	46	41.9887
6415	138.28	52	42.3121
6416	138.3	52	41.833
6417	138.32	36	40.7341
6418	138.34	44	39.1732
6419	138.36	44	37.4862
6420	138.38	45	35.9219
6421	138.4	43	34.644
6422	138.42	42	33.7398
6423	138.44	28	33.2378
6424	138.46	33	33.1313
6425	138.48	44	33.391
6426	138.5	41	33.9638
6427	138.52	40	34.7609
6428	138.54	38	35.6452
6429	138.56	40	36.4344
6430	138.58	44	36.9246
6431	138.6	40	36.9526
6432	138.62	36	36.461
6433	138.64	39	35.4905
6434	138.66	27	34.2872
6435	138.68	35	33.0251
6436	138.7	33	31.8765
6437	138.72	34	30.9555
6438	138.74	32	30.3154
6439	138.76	31	29.9638
6440	138.78	41	29.8799
6441	138.8	41	30.0204
6442	138.82	29	30.3195
6443	138.84	34	30.6902
6444	138.86	31	31.0323
6445	138.88	30	31.2562
6446	138.9	34	31.3097
6447	138.92	34	31.1894
6448	138.94	39	30.9276
6449	138.96	38	30.5626
6450	138.98	31	30.1159
6451	139	34	29.5947
6452	139.02	36	29.0096
6453	139.04	34	27.9484
6454	139.06	32	27.3574
6455	139.08	31	26.8367
6456	139.1	32	26.4305
6457	139.12	31	26.1655
6458	139.14	30	26.0539
6459	139.16	34	26.0989
6460	139.18	32	26.2984
6461	139.2	31	26.6504
6462	139.22	37	27.1518
6463	139.24	33	27.7981
6464	139.26	36	28.5802
6465	139.28	37	29.4749
6466	139.3	36	30.4382
6467	139.32	36	31.4001
6468	139.34	37	32.2759
6469	139.36	36	32.9871
6470	139.38	39	33.495
6471	139.4	36	33.8229
6472	139.42	38	34.0476
6473	139.44	40	34.276
6474	139.46	40	34.6154
6475	139.48	41	35.1593
6476	139.5	36	35.9822
6477	139.52	41	37.1357
6478	139.54	52	38.6776
6479	139.56	41	40.6169
6480	139.58	46	42.9194
6481	139.6	53	45.4774
6482	139.62	61	48.1032
6483	139.64	67	50.5358
6484	139.66	76	52.5101
6485	139.68	73	53.8385
6486	139.7	72	54.4669
6487	139.72	61	54.4441
6488	139.74	59	53.8456
6489	139.76	58	52.5561
6490	139.78	64	50.881
6491	139.8	54	48.4761
6492	139.82	59	45.9109
6493	139.84	46	43.1298
6494	139.86	44	40.3187
6495	139.88	51	37.6211
6496	139.9	50	35.1163
6497	139.92	36	32.8436
6498	139.94	47	30.8113
6499	139.96	38	29.0114
6500	139.98	37	27.4206
6501	140	33	26.0132

# The following lines are used to test the character set of files sent by
# network email or other means. They are not part of the CIF data set.
# abcdefghijklmnopqrstuvwxyzABCDEFGHIJKLMNOPQRSTUVWXYZ0123456789
# !@#$%^&*()_+{}:"~<>?|\-=[];'`,./                 





_exptl_crystal_density_diffrn
7.173
_refine_ls_goodness_of_fit_all
0.81
_chemical_formula_iupac
'La In O3'
_chemical_formula_structural
'La In O3'
_cell_formula_units_Z
4
_exptl_absorpt_process_details
none
_chemical_formula_moiety
'In La O3'
_cell_length_a
5.94040(10)
_cell_length_b
8.21580(10)
_cell_length_c
5.72290(10)
_exptl_absorpt_correction_T_max
none
_diffrn_radiation_type
'Cu K\a'
_symmetry_space_group_name_Hall
'-p 2ac 2n'
_exptl_special_details
;
The full pattern refinement of X-ray powder diffraction data was performed
as follows. First, we assigned the space group as Pnma (No. 62). The
unit-cell parameters that had previously been obtained from the
pattern with an Si internal standard were used as the starting model
of the Rietveld refinement. The validity of this model was confirmed
through the profile-matching method. To refine the structure,
initially only the scale factor, six background coefficients, the unit-cell
parameters and the W parameter among three variables of FWHM were
varied. In subsequent refinements, the positional, displacement and site-
occupancy parameters were refined. Each occupancy factor was
constrained according to the stoichiometric ratio. The U
and V parameters of the FWHM were then varied. Refinement was terminated when
R~p~, R~wp~ and goodness-of-fit (S) parameters of 4.35%, 6.02 0x0p+0nd 0.81,
respectively, were obtained. In the
final refinement, isotropic temperature factors were successfully
refined for all
atoms, although the goodness-of-fit was not ideal for the refinement.
S is a useful numerical criterion for assessing the
relevancy of a refinement process. An S value of 1.3 or less is usually
considered to be quite satisfactory. However, a value of S that is
too small may simply mean that
the counting statistical errors outweigh the model errors, either
because of poor
counting statistics or because of high background (Young, 1993).
To confirm the exact model relevancy, we performed a differential Fourier
synthesis with SHELXL97 (Sheldrick, 1997). The maximum and minimum electron
densities on the
difference Fourier map are 0.97 and -0.96/\0X0P+0^3^, respectively.
We regarded this refined structural model as correct.
Young, R. A. (1993). The Rietveld Method.  New York:
IUCR, Oxford University Press Inc.
;
_computing_molecular_graphics
'ATOMS (Dowty, 1997)'
_chemical_formula_weight
301.73
_computing_structure_refinement
'FULLPROF98'
_exptl_absorpt_correction_type
none
_symmetry_space_group_name_H-M
'P n m a'
_cell_angle_gamma
90.00
_cell_measurement_temperature
295
_computing_cell_refinement
'FULLPROF98 (Carvajal, 2000))'
_computing_publication_material
'PLATON (Spek, 1990)'
_refine_ls_shift/su_max
0.01
_diffrn_radiation_monochromator
'graphite'
_chemical_name_systematic
;
Lanthanum Indium Oxide
;
_cell_volume
279.307(8)
_refine_ls_structure_factor_coef
Inet
_exptl_crystal_F_000
520
_symmetry_cell_setting
orthorhombic
_diffrn_ambient_temperature
295
_exptl_absorpt_coefficient_mu
180.73
_exptl_crystal_density_meas
'not measured'
_refine_ls_R_factor_all
0.0304
_exptl_absorpt_correction_T_min
none
_diffrn_radiation_wavelength
1.5418
_computing_data_collection
'D/max-B Software (Rigaku Corporation, 1990)'
_refine_ls_extinction_method
none
_diffrn_measurement_device_type
'Rigaku D/max-B'
_cell_angle_alpha
90.00
_refine_ls_number_parameters
30
_chemical_formula_sum
'In La O3'
_refine_ls_matrix_type
fullcycle
_cell_angle_beta
90.00
loop_
_symmetry_equiv_pos_as_xyz

;x, y, z
;

;x+1/2, -y+1/2, -z+1/2
;

;-x, y+1/2, -z
;

;-x+1/2, -y, z+1/2
;

;-x, -y, -z
;

;-x+1/2, y+1/2, z+1/2
;

;x, -y+1/2, z
;

;x+1/2, y, -z+1/2
;

loop_
_atom_type_symbol
_atom_type_description
_atom_type_scat_dispersion_real
_atom_type_scat_dispersion_imag
_atom_type_scat_source
La La -1.4094 9.0376 
;International Tables Vol C Tables 4.2.6.8 and 6.1.1.4
;
In In 0.0822 5.0449 
;International Tables Vol C Tables 4.2.6.8 and 6.1.1.4
;
O O 0.0492 0.0322 
;International Tables Vol C Tables 4.2.6.8 and 6.1.1.4
;

loop_
_atom_site_label
_atom_site_fract_x
_atom_site_fract_y
_atom_site_fract_z
_atom_site_u_iso_or_equiv
_atom_site_occupancy
_atom_site_type_symbol
O1 0.029(5) 0.25 0.615(5) 1.12(8) 1.0 O
O2 0.209(3) 0.0623(17) 0.192(4) 0.21(6) 1.0 O
In 0 0 0.5 0.15(2) 1.0 In
La -0.0551(4) 0.25 0.0169(9) 0.24(2) 1.0 La

loop_
_geom_bond_atom_site_label_1
_geom_bond_atom_site_label_2
_geom_bond_site_symmetry_2
_geom_bond_distance
_geom_bond_publ_flag
In O2 4 2.11(2) y
In O1 . 2.164(9) y
In O1 5_556 2.164(9) y
In O2 . 2.22(2) y
In O2 5_556 2.22(2) y
La O1 1_554 2.35(3) y
La O2 . 2.417(16) ?
La O1 2_455 2.59(3) y
La O2 2_455 2.67(2) y
La O2 5 2.975(17) y
La O2 3 2.975(17) y

loop_
_geom_angle_atom_site_label_1
_geom_angle_atom_site_label_2
_geom_angle_atom_site_label_3
_geom_angle_site_symmetry_1
_geom_angle_site_symmetry_3
_geom_angle
_geom_angle_publ_flag
O2 In O1 4 . 90.4(8) y
O2 In O1 4 5_556 89.6(8) y
O2 In O2 4 . 90.6(3) y
O1 In O2 . . 88.8(8) y
O1 In O2 5_556 . 91.2(8) y
O2 In O2 4 5_556 89.4(3) y
O1 In O2 . 5_556 91.2(8) y
O1 In O2 5_556 5_556 88.8(8) y
O1 La O2 1_554 . 105.5(7) y
O1 La O1 1_554 2_455 85.2(6) y
O2 La O1 . 2_455 137.9(5) y
O1 La O2 1_554 2_455 136.2(6) y
O2 La O2 . 2_455 116.8(4) y
O1 La O2 2_455 2_455 71.4(7) no
O1 La O2 1_554 5 70.9(5) no
O2 La O2 . 5 79.4(7) no
O1 La O2 2_455 5 65.7(4) no
O2 La O2 2_455 5 126.0(3) y
O1 La O2 1_554 3 70.9(5) y
O1 La O2 2_455 3 65.7(4) y
O2 La O2 2_455 3 65.8(2) y
O2 La O2 5 3 119.2(7) y



# powder data simulated using PLATON:

data_I_simulated_1.5418

_publcif_pd_cifplot 'simulated 2021-03-25'

