data_I

_pd_block_id      EuI2_IV


loop_
_pd_proc_point_id
_pd_proc_2theta_corrected   
_pd_proc_intensity_total
_pd_calc_intensity_total
_pd_proc_intensity_bkg_calc
 
     1     5.0332    8643(93)          8896.3994         8896.3994       
     2     5.0532    8903(94)          8895.3906         8895.3906       
     3     5.0732    8958(95)          8894.3809         8894.3809       
     4     5.0932    8995(95)          8893.3721         8893.3721       
     5     5.1132    8772(94)          8892.3643         8892.3643       
     6     5.1332    8845(94)          8890.3545         8890.3545       
     7     5.1532    8928(94)          8889.3457         8889.3457       
     8     5.1732    8870(94)          8888.3369         8888.3369       
     9     5.1932    8978(95)          8886.3281         8886.3281       
    10     5.2132    8939(95)          8885.3193         8885.3193       
    11     5.2332    8731(93)          8884.3105         8884.3105       
    12     5.2532    8848(94)          8883.3018         8883.3018       
    13     5.2732    9128(96)          8881.2930         8881.2930       
    14     5.2932    8839(94)          8880.2842         8880.2842       
    15     5.3132    8979(95)          8879.2754         8879.2754       
    16     5.3332    8971(95)          8878.2656         8878.2656       
    17     5.3532    8840(94)          8876.2578         8876.2578       
    18     5.3732    8895(94)          8875.2490         8875.2490       
    19     5.3932    8817(94)          8874.2402         8874.2402       
    20     5.4132    8916(94)          8874.2314         8874.2314       
    21     5.4332    9184(96)          8872.2227         8872.2227       
    22     5.4532    8887(94)          8870.2139         8870.2139       
    23     5.4732    8884(94)          8869.2061         8869.2061       
    24     5.4932    8657(93)          8868.1973         8868.1973       
    25     5.5132    8875(94)          8866.1885         8866.1885       
    26     5.5332    8877(94)          8865.1797         8865.1797       
    27     5.5532    8887(94)          8863.1719         8863.1719       
    28     5.5732    9085(95)          8862.1631         8862.1631       
    29     5.5932    8978(95)          8861.1543         8861.1543       
    30     5.6132    8658(93)          8860.1465         8860.1465       
    31     5.6332    8984(95)          8859.1377         8859.1377       
    32     5.6532    8736(93)          8857.1299         8857.1299       
    33     5.6732    8838(94)          8856.1211         8856.1211       
    34     5.6932    8796(94)          8855.1123         8855.1123       
    35     5.7132    9052(95)          8854.1045         8854.1045       
    36     5.7332    8815(94)          8853.0957         8853.0957       
    37     5.7532    8740(93)          8852.0879         8852.0879       
    38     5.7732    8792(94)          8852.0801         8852.0801       
    39     5.7932    8867(94)          8850.0723         8850.0723       
    40     5.8132    8808(94)          8849.0645         8849.0645       
    41     5.8332    8731(93)          8847.0566         8847.0566       
    42     5.8532    8869(94)          8846.0488         8846.0488       
    43     5.8732    8821(94)          8845.0400         8845.0400       
    44     5.8932    8698(93)          8844.0322         8844.0322       
    45     5.9132    8775(94)          8843.0244         8843.0244       
    46     5.9332    8875(94)          8842.0166         8842.0166       
    47     5.9532    8792(94)          8840.0098         8840.0098       
    48     5.9732    8888(94)          8839.0020         8839.0020       
    49     5.9932    8858(94)          8837.9941         8837.9941       
    50     6.0132    8901(94)          8836.9873         8836.9873       
    51     6.0332    9149(96)          8835.9795         8835.9795       
    52     6.0532    8884(94)          8834.9717         8834.9717       
    53     6.0732    8727(93)          8833.9648         8833.9648       
    54     6.0932    8747(94)          8832.9570         8832.9570       
    55     6.1132    8881(94)          8831.9492         8831.9492       
    56     6.1332    9156(96)          8830.9424         8830.9424       
    57     6.1532    8777(94)          8830.9346         8830.9346       
    58     6.1732    8763(94)          8829.9287         8829.9287       
    59     6.1932    8772(94)          8828.9209         8828.9209       
    60     6.2132    8832(94)          8827.9141         8827.9141       
    61     6.2332    8930(94)          8826.9082         8826.9082       
    62     6.2532    8754(94)          8825.9004         8825.9004       
    63     6.2732    8959(95)          8824.8936         8824.8936       
    64     6.2932    8797(94)          8822.8877         8822.8877       
    65     6.3132    8850(94)          8821.8799         8821.8799       
    66     6.3332    8768(94)          8820.8740         8820.8740       
    67     6.3532    8907(94)          8819.8672         8819.8672       
    68     6.3732    8849(94)          8818.8613         8818.8613       
    69     6.3932    8861(94)          8817.8555         8817.8555       
    70     6.4132    8717(93)          8816.8486         8816.8486       
    71     6.4332    8900(94)          8815.8428         8815.8428       
    72     6.4532    8618(93)          8814.8369         8814.8369       
    73     6.4732    8983(95)          8813.8311         8813.8311       
    74     6.4932    8676(93)          8812.8252         8812.8252       
    75     6.5132    8821(94)          8812.8184         8812.8184       
    76     6.5332    8909(94)          8811.8125         8811.8125       
    77     6.5532    8467(92)          8810.8066         8810.8066       
    78     6.5732    8748(94)          8809.8008         8809.8008       
    79     6.5932    8804(94)          8808.7949         8808.7949       
    80     6.6132    8772(94)          8807.7910         8807.7910       
    81     6.6332    8592(93)          8806.7852         8806.7852       
    82     6.6532    8679(93)          8805.7793         8805.7793       
    83     6.6732    8858(94)          8804.7744         8804.7744       
    84     6.6932    8823(94)          8804.7686         8804.7686       
    85     6.7132    8772(94)          8803.7637         8803.7637       
    86     6.7332    8854(94)          8802.7588         8802.7588       
    87     6.7532    9003(95)          8801.7539         8801.7539       
    88     6.7732    9032(95)          8800.7490         8800.7490       
    89     6.7932    8904(94)          8799.7441         8799.7441       
    90     6.8132    8964(95)          8798.7393         8798.7393       
    91     6.8332    8901(94)          8797.7354         8797.7354       
    92     6.8532    8872(94)          8796.7305         8796.7305       
    93     6.8732    8741(93)          8796.7266         8796.7266       
    94     6.8932    8682(93)          8795.7217         8795.7217       
    95     6.9132    8725(93)          8794.7168         8794.7168       
    96     6.9332    8846(94)          8793.7129         8793.7129       
    97     6.9532    8641(93)          8792.7090         8792.7090       
    98     6.9732    8623(93)          8792.7051         8792.7051       
    99     6.9932    8631(93)          8791.7012         8791.7012       
   100     7.0132    8871(94)          8790.6973         8790.6973       
   101     7.0332    8794(94)          8789.6934         8789.6934       
   102     7.0532    8955(95)          8788.6895         8788.6895       
   103     7.0732    9008(95)          8787.6855         8787.6855       
   104     7.0932    8765(94)          8787.6826         8787.6826       
   105     7.1132    8751(94)          8786.6797         8786.6797       
   106     7.1332    8732(93)          8785.6758         8785.6758       
   107     7.1532    8665(93)          8784.6729         8784.6729       
   108     7.1732    8777(94)          8784.6699         8784.6699       
   109     7.1932    8709(93)          8783.6660         8783.6660       
   110     7.2132    8971(95)          8782.6641         8782.6641       
   111     7.2332    8885(94)          8781.6602         8781.6602       
   112     7.2532    8896(94)          8781.6582         8781.6582       
   113     7.2732    8665(93)          8778.6553         8778.6553       
   114     7.2932    8751(94)          8775.6523         8775.6523       
   115     7.3132    8589(93)          8771.6504         8771.6504       
   116     7.3332    8713(93)          8767.6484         8767.6484       
   117     7.3532    8894(94)          8765.6445         8765.6445       
   118     7.3732    8611(93)          8761.6426         8761.6426       
   119     7.3932    8570(93)          8758.6406         8758.6406       
   120     7.4132    8768(94)          8755.6387         8755.6387       
   121     7.4332    8933(95)          8752.6367         8752.6367       
   122     7.4532    8344(91)          8748.6348         8748.6348       
   123     7.4732    8696(93)          8745.6328         8745.6328       
   124     7.4932    8473(92)          8742.6318         8742.6318       
   125     7.5132    8654(93)          8739.6299         8739.6299       
   126     7.5332    8675(93)          8735.6279         8735.6279       
   127     7.5532    8849(94)          8733.6260         8733.6260       
   128     7.5732    8825(94)          8729.6260         8729.6260       
   129     7.5932    8687(93)          8726.6240         8726.6240       
   130     7.6132    8557(93)          8723.6230         8723.6230       
   131     7.6332    8680(93)          8720.6221         8720.6221       
   132     7.6532    8696(93)          8716.6211         8716.6211       
   133     7.6732    8782(94)          8713.6191         8713.6191       
   134     7.6932    8463(92)          8710.6191         8710.6191       
   135     7.7132    8842(94)          8707.6182         8707.6182       
   136     7.7332    8539(92)          8703.6172         8703.6172       
   137     7.7532    8741(93)          8701.6172         8701.6172       
   138     7.7732    8782(94)          8697.6162         8697.6162       
   139     7.7932    8808(94)          8695.6162         8695.6162       
   140     7.8132    8838(94)          8691.6162         8691.6162       
   141     7.8332    8719(93)          8688.6152         8688.6152       
   142     7.8532    8679(93)          8685.6152         8685.6152       
   143     7.8732    8954(95)          8682.6152         8682.6152       
   144     7.8932    8583(93)          8678.6152         8678.6152       
   145     7.9132    8726(93)          8675.6152         8675.6152       
   146     7.9332    8538(92)          8672.6152         8672.6152       
   147     7.9532    8674(93)          8668.6162         8668.6162       
   148     7.9732    8832(94)          8666.6162         8666.6162       
   149     7.9932    8639(93)          8662.6162         8662.6162       
   150     8.0132    8688(93)          8660.6172         8660.6172       
   151     8.0332    8669(93)          8656.6172         8656.6172       
   152     8.0532    8774(94)          8653.6182         8653.6182       
   153     8.0732    8682(93)          8650.6191         8650.6191       
   154     8.0932    8561(93)          8647.6201         8647.6201       
   155     8.1132    8573(93)          8644.6201         8644.6201       
   156     8.1332    8577(93)          8641.6221         8641.6221       
   157     8.1532    8696(93)          8637.6230         8637.6230       
   158     8.1732    8684(93)          8635.6230         8635.6230       
   159     8.1932    8548(92)          8631.6250         8631.6250       
   160     8.2132    8679(93)          8629.6260         8629.6260       
   161     8.2332    8459(92)          8625.6279         8625.6279       
   162     8.2532    8472(92)          8622.6289         8622.6289       
   163     8.2732    8799(94)          8619.6309         8619.6309       
   164     8.2932    8660(93)          8616.6328         8616.6328       
   165     8.3132    8476(92)          8613.6338         8613.6338       
   166     8.3332    8653(93)          8610.6357         8610.6357       
   167     8.3532    8577(93)          8606.6377         8606.6377       
   168     8.3732    8673(93)          8604.6396         8604.6396       
   169     8.3932    8586(93)          8600.6406         8600.6406       
   170     8.4132    8584(93)          8598.6426         8598.6426       
   171     8.4332    8578(93)          8594.6445         8594.6445       
   172     8.4532    8667(93)          8592.6475         8592.6475       
   173     8.4732    8622(93)          8588.6494         8588.6494       
   174     8.4932    8486(92)          8585.6514         8585.6514       
   175     8.5132    8540(92)          8582.6543         8582.6543       
   176     8.5332    8550(92)          8578.6562         8578.6562       
   177     8.5532    8465(92)          8576.6592         8576.6592       
   178     8.5732    8596(93)          8572.6611         8572.6611       
   179     8.5932    8632(93)          8570.6641         8570.6641       
   180     8.6132    8669(93)          8566.6660         8566.6660       
   181     8.6332    8627(93)          8564.6689         8564.6689       
   182     8.6532    8656(93)          8560.6719         8560.6719       
   183     8.6732    8650(93)          8557.6748         8557.6748       
   184     8.6932    8383(92)          8554.6777         8554.6777       
   185     8.7132    8560(93)          8551.6807         8551.6807       
   186     8.7332    8437(92)          8548.6846         8548.6846       
   187     8.7532    8590(93)          8545.6865         8545.6865       
   188     8.7732    8537(92)          8542.6895         8542.6895       
   189     8.7932    8541(92)          8539.6934         8539.6934       
   190     8.8132    8587(93)          8536.6963         8536.6963       
   191     8.8332    8464(92)          8533.6992         8533.6992       
   192     8.8532    8517(92)          8529.7031         8529.7031       
   193     8.8732    8509(92)          8527.7061         8527.7061       
   194     8.8932    8252(91)          8523.7100         8523.7100       
   195     8.9132    8557(93)          8521.7129         8521.7129       
   196     8.9332    8401(92)          8517.7168         8517.7168       
   197     8.9532    8555(92)          8515.7197         8515.7197       
   198     8.9732    8574(93)          8512.7236         8512.7236       
   199     8.9932    8646(93)          8511.7275         8511.7275       
   200     9.0132    8580(93)          8509.7305         8509.7305       
   201     9.0332    8464(92)          8506.7354         8506.7354       
   202     9.0532    8514(92)          8505.7393         8505.7393       
   203     9.0732    8531(92)          8503.7422         8503.7422       
   204     9.0932    8414(92)          8502.7461         8502.7461       
   205     9.1132    8575(93)          8500.7500         8500.7500       
   206     9.1332    8328(91)          8498.7539         8498.7539       
   207     9.1532    8538(92)          8496.7578         8496.7578       
   208     9.1732    8716(93)          8494.7617         8494.7617       
   209     9.1932    8492(92)          8493.7666         8493.7666       
   210     9.2132    8518(92)          8491.7695         8491.7695       
   211     9.2332    8462(92)          8489.7744         8489.7744       
   212     9.2532    8530(92)          8487.7783         8487.7783       
   213     9.2732    8348(91)          8486.7822         8486.7822       
   214     9.2932    8403(92)          8484.7871         8484.7871       
   215     9.3132    8433(92)          8482.7910         8482.7910       
   216     9.3332    8524(92)          8480.7959         8480.7959       
   217     9.3532    8615(93)          8478.7988         8478.7988       
   218     9.3732    8331(91)          8477.8037         8477.8037       
   219     9.3932    8451(92)          8475.8076         8475.8076       
   220     9.4132    8574(93)          8474.8125         8474.8125       
   221     9.4332    8799(94)          8471.8174         8471.8174       
   222     9.4532    8476(92)          8469.8213         8469.8213       
   223     9.4732    8590(93)          8468.8262         8468.8262       
   224     9.4932    8418(92)          8466.8301         8466.8301       
   225     9.5132    8916(94)          8465.8350         8465.8350       
   226     9.5332    8382(92)          8462.8389         8462.8389       
   227     9.5532    8505(92)          8460.8438         8460.8438       
   228     9.5732    8778(94)          8459.8486         8459.8486       
   229     9.5932    8446(92)          8457.8525         8457.8525       
   230     9.6132    8567(93)          8457.8574         8457.8574       
   231     9.6332    8357(91)          8454.8623         8454.8623       
   232     9.6532    8538(92)          8452.8662         8452.8662       
   233     9.6732    8801(94)          8451.8711         8451.8711       
   234     9.6932    8452(92)          8449.8760         8449.8760       
   235     9.7132    8201(91)          8448.8799         8448.8799       
   236     9.7332    8584(93)          8445.8848         8445.8848       
   237     9.7532    8473(92)          8443.8896         8443.8896       
   238     9.7732    8453(92)          8442.8945         8442.8945       
   239     9.7932    8453(92)          8440.8984         8440.8984       
   240     9.8132    8610(93)          8438.9033         8438.9033       
   241     9.8332    8444(92)          8436.9082         8436.9082       
   242     9.8532    8462(92)          8434.9121         8434.9121       
   243     9.8732    8687(93)          8433.9170         8433.9170       
   244     9.8932    8435(92)          8431.9219         8431.9219       
   245     9.9132    8328(91)          8429.9268         8429.9268       
   246     9.9332    8344(91)          8427.9307         8427.9307       
   247     9.9532    8327(91)          8425.9355         8425.9355       
   248     9.9732    8463(92)          8423.9404         8423.9404       
   249     9.9932    8383(92)          8422.9453         8422.9453       
   250    10.0132    8447(92)          8420.9492         8420.9492       
   251    10.0332    8462(92)          8417.9541         8417.9541       
   252    10.0532    8546(92)          8416.9590         8416.9590       
   253    10.0732    8457(92)          8414.9629         8414.9629       
   254    10.0932    8417(92)          8412.9678         8412.9678       
   255    10.1132    8369(91)          8411.9727         8411.9727       
   256    10.1332    8422(92)          8408.9775         8408.9775       
   257    10.1532    8364(91)          8406.9814         8406.9814       
   258    10.1732    8294(91)          8405.9863         8405.9863       
   259    10.1932    8606(93)          8403.9912         8403.9912       
   260    10.2132    8332(91)          8401.9951         8401.9951       
   261    10.2332    8304(91)          8399.0000         8399.0000       
   262    10.2532    8234(91)          8398.0049         8398.0049       
   263    10.2732    8445(92)          8396.0088         8396.0088       
   264    10.2932    8531(92)          8394.0137         8394.0137       
   265    10.3132    8386(92)          8393.0186         8393.0186       
   266    10.3332    8480(92)          8390.0225         8390.0225       
   267    10.3532    8361(91)          8388.0273         8388.0273       
   268    10.3732    8368(91)          8386.0312         8386.0312       
   269    10.3932    8266(91)          8385.0352         8385.0352       
   270    10.4132    8169(90)          8383.0400         8383.0400       
   271    10.4332    8310(91)          8380.0439         8380.0439       
   272    10.4532    8264(91)          8378.0488         8378.0488       
   273    10.4732    8459(92)          8377.0527         8377.0527       
   274    10.4932    8285(91)          8375.0566         8375.0566       
   275    10.5132    8327(91)          8373.0615         8373.0615       
   276    10.5332    8370(91)          8370.0654         8370.0654       
   277    10.5532    8356(91)          8370.0703         8370.0703       
   278    10.5732    8490(92)          8368.0742         8368.0742       
   279    10.5932    8391(92)          8366.0781         8366.0781       
   280    10.6132    8278(91)          8365.0820         8365.0820       
   281    10.6332    8497(92)          8363.0859         8363.0859       
   282    10.6532    8318(91)          8362.0898         8362.0898       
   283    10.6732    8463(92)          8360.0938         8360.0938       
   284    10.6932    8240(91)          8358.0986         8358.0986       
   285    10.7132    8247(91)          8357.8115         8356.1016       
   286    10.7332    8299(91)          8355.8486         8354.1055       
   287    10.7532    8240(91)          8354.8867         8353.1094       
   288    10.7732    8169(90)          8352.9258         8351.1133       
   289    10.7932    8193(91)          8350.9658         8349.1172       
   290    10.8132    8273(91)          8349.0068         8347.1211       
   291    10.8332    8371(91)          8347.0488         8345.1250       
   292    10.8532    8248(91)          8345.0918         8343.1279       
   293    10.8732    8452(92)          8343.1367         8341.1318       
   294    10.8932    8297(91)          8342.1826         8340.1357       
   295    10.9132    8280(91)          8340.2295         8338.1387       
   296    10.9332    8193(91)          8338.2783         8336.1426       
   297    10.9532    8256(91)          8337.3271         8335.1455       
   298    10.9732    8397(92)          8335.3789         8333.1494       
   299    10.9932    8343(91)          8333.4316         8331.1523       
   300    11.0132    8159(90)          8331.4863         8329.1553       
   301    11.0332    8186(90)          8329.5430         8327.1592       
   302    11.0532    8485(92)          8328.6016         8326.1631       
   303    11.0732    8390(92)          8326.6611         8324.1660       
   304    11.0932    8389(92)          8324.7217         8322.1680       
   305    11.1132    8269(91)          8322.7861         8320.1719       
   306    11.1332    8274(91)          8320.8525         8318.1748       
   307    11.1532    8134(90)          8318.9209         8316.1777       
   308    11.1732    8342(91)          8316.9912         8314.1807       
   309    11.1932    8372(91)          8315.0645         8312.1836       
   310    11.2132    8421(92)          8313.1396         8310.1865       
   311    11.2332    8489(92)          8311.2188         8308.1895       
   312    11.2532    8327(91)          8309.2998         8306.1924       
   313    11.2732    8243(91)          8307.3838         8304.1943       
   314    11.2932    8193(91)          8305.4717         8302.1973       
   315    11.3132    8350(91)          8304.5625         8301.2002       
   316    11.3332    8452(92)          8302.6572         8299.2021       
   317    11.3532    8497(92)          8300.7559         8297.2051       
   318    11.3732    8339(91)          8298.8584         8295.2080       
   319    11.3932    8302(91)          8296.9639         8293.2100       
   320    11.4132    8199(91)          8295.0762         8291.2129       
   321    11.4332    8367(91)          8293.1924         8289.2158       
   322    11.4532    8269(91)          8291.3125         8287.2178       
   323    11.4732    8350(91)          8289.4375         8285.2197       
   324    11.4932    8178(90)          8287.5693         8283.2217       
   325    11.5132    8418(92)          8285.7070         8281.2236       
   326    11.5332    8405(92)          8283.8516         8279.2266       
   327    11.5532    8311(91)          8282.0010         8277.2275       
   328    11.5732    8280(91)          8280.1602         8275.2305       
   329    11.5932    8307(91)          8278.3242         8273.2314       
   330    11.6132    8352(91)          8276.4980         8271.2334       
   331    11.6332    8278(91)          8274.6816         8269.2363       
   332    11.6532    8316(91)          8273.8730         8268.2373       
   333    11.6732    7982(89)          8272.0752         8266.2393       
   334    11.6932    8294(91)          8270.2871         8264.2402       
   335    11.7132    8163(90)          8270.5117         8264.2422       
   336    11.7332    8249(91)          8269.7490         8263.2441       
   337    11.7532    8100(90)          8268.9980         8262.2451       
   338    11.7732    8343(91)          8269.2627         8262.2471       
   339    11.7932    8419(92)          8268.5430         8261.2480       
   340    11.8132    8100(90)          8267.8398         8260.2500       
   341    11.8332    8117(90)          8267.1543         8259.2510       
   342    11.8532    8202(91)          8266.4883         8258.2520       
   343    11.8732    8283(91)          8266.8447         8258.2529       
   344    11.8932    8124(90)          8266.2246         8257.2549       
   345    11.9132    8089(90)          8265.6299         8256.2559       
   346    11.9332    8213(91)          8266.0625         8256.2559       
   347    11.9532    8258(91)          8265.5264         8255.2568       
   348    11.9732    8019(90)          8265.0254         8254.2578       
   349    11.9932    8303(91)          8264.5635         8253.2588       
   350    12.0132    8319(91)          8264.1436         8252.2598       
   351    12.0332    8208(91)          8264.7715         8252.2598       
   352    12.0532    8105(90)          8264.4561         8251.2607       
   353    12.0732    8100(90)          8264.2031         8250.2617       
   354    12.0932    8224(91)          8265.0225         8250.2617       
   355    12.1132    8034(90)          8263.9277         8248.2627       
   356    12.1332    8265(91)          8264.9297         8248.2627       
   357    12.1532    8423(92)          8265.0479         8247.2637       
   358    12.1732    8377(92)          8265.3018         8246.2646       
   359    12.1932    8180(90)          8266.7129         8246.2646       
   360    12.2132    8235(91)          8266.3125         8244.2656       
   361    12.2332    8266(91)          8267.1270         8243.2646       
   362    12.2532    8263(91)          8269.1982         8243.2646       
   363    12.2732    8305(91)          8270.5664         8242.2656       
   364    12.2932    8473(92)          8273.2754         8242.2656       
   365    12.3132    8197(91)          8274.3799         8240.2646       
   366    12.3332    8242(91)          8276.9404         8239.2656       
   367    12.3532    8593(93)          8281.0254         8239.2656       
   368    12.3732    8138(90)          8284.7197         8238.2646       
   369    12.3932    8290(91)          8289.7021         8237.2646       
   370    12.4132    8289(91)          8294.9893         8236.2646       
   371    12.4332    8082(90)          8301.3369         8235.2646       
   372    12.4532    8428(92)          8310.0117         8235.2637       
   373    12.4732    8519(92)          8319.3779         8234.2637       
   374    12.4932    8384(92)          8329.9004         8232.2627       
   375    12.5132    8333(91)          8345.1543         8232.2627       
   376    12.5332    8503(92)          8362.8037         8231.2617       
   377    12.5532    8404(92)          8384.5605         8230.2617       
   378    12.5732    8512(92)          8411.1270         8229.2607       
   379    12.5932    8422(92)          8443.1123         8228.2598       
   380    12.6132    8574(93)          8481.9756         8228.2598       
   381    12.6332    8587(93)          8524.9258         8226.2588       
   382    12.6532    8558(93)          8574.8613         8225.2578       
   383    12.6732    8328(91)          8631.2002         8225.2578       
   384    12.6932    8495(92)          8690.6260         8224.2568       
   385    12.7132    8605(93)          8750.6035         8222.2549       
   386    12.7332    8563(93)          8809.8193         8222.2539       
   387    12.7532    8567(93)          8858.8086         8221.2539       
   388    12.7732    8501(92)          8890.6289         8220.2529       
   389    12.7932    8675(93)          8898.1582         8219.2510       
   390    12.8132    8786(94)          8878.2549         8218.2500       
   391    12.8332    8568(93)          8833.5020         8217.2490       
   392    12.8532    8558(93)          8770.9697         8216.2471       
   393    12.8732    8800(94)          8700.1719         8216.2461       
   394    12.8932    8630(93)          8625.5576         8214.2451       
   395    12.9132    8533(92)          8555.4727         8213.2432       
   396    12.9332    8591(93)          8493.2236         8213.2422       
   397    12.9532    8284(91)          8438.4609         8212.2402       
   398    12.9732    8360(91)          8391.6475         8210.2393       
   399    12.9932    8323(91)          8355.4004         8210.2373       
   400    13.0132    8481(92)          8325.8311         8209.2363       
   401    13.0332    8366(91)          8302.7832         8208.2344       
   402    13.0532    8553(92)          8285.0479         8207.2334       
   403    13.0732    8368(91)          8270.4863         8205.2314       
   404    13.0932    8338(91)          8261.1172         8205.2305       
   405    13.1132    8393(92)          8253.1318         8204.2285       
   406    13.1332    8236(91)          8245.8945         8202.2266       
   407    13.1532    8355(91)          8241.9209         8202.2256       
   408    13.1732    8435(92)          8237.8438         8201.2227       
   409    13.1932    8340(91)          8234.3994         8200.2207       
   410    13.2132    8422(92)          8231.3936         8199.2197       
   411    13.2332    8280(91)          8228.6895         8198.2178       
   412    13.2532    8290(91)          8226.1924         8197.2158       
   413    13.2732    8254(91)          8223.8389         8196.2139       
   414    13.2932    8165(90)          8220.5889         8194.2119       
   415    13.3132    8168(90)          8219.4160         8194.2100       
   416    13.3332    8367(91)          8217.3066         8193.2080       
   417    13.3532    8349(91)          8215.2529         8192.2051       
   418    13.3732    8270(91)          8213.2529         8191.2036       
   419    13.3932    8179(90)          8211.3057         8190.2017       
   420    13.4132    8302(91)          8209.4111         8189.1997       
   421    13.4332    8396(92)          8207.5703         8188.1973       
   422    13.4532    8324(91)          8204.7842         8186.1948       
   423    13.4732    8271(91)          8204.0547         8186.1934       
   424    13.4932    8369(91)          8202.3799         8185.1909       
   425    13.5132    8067(90)          8200.7588         8184.1885       
   426    13.5332    8257(91)          8199.1924         8183.1865       
   427    13.5532    8066(90)          8196.6777         8181.1841       
   428    13.5732    8178(90)          8196.2139         8181.1816       
   429    13.5932    8105(90)          8194.7998         8180.1797       
   430    13.6132    8254(91)          8192.4326         8178.1777       
   431    13.6332    8274(91)          8192.1123         8178.1753       
   432    13.6532    8129(90)          8189.8364         8176.1729       
   433    13.6732    8144(90)          8189.6060         8176.1704       
   434    13.6932    8028(90)          8188.4194         8175.1680       
   435    13.7132    8369(91)          8187.2783         8174.1655       
   436    13.7332    8451(92)          8188.1831         8175.1636       
   437    13.7532    7960(89)          8188.1353         8175.1611       
   438    13.7732    8330(91)          8188.1372         8175.1587       
   439    13.7932    8279(91)          8190.1934         8177.1562       
   440    13.8132    8187(90)          8190.3076         8177.1533       
   441    13.8332    8110(90)          8191.4868         8178.1509       
   442    13.8532    8340(91)          8191.7383         8178.1484       
   443    13.8732    8217(91)          8193.0703         8179.1460       
   444    13.8932    8127(90)          8195.4951         8181.1436       
   445    13.9132    8100(90)          8196.0234         8181.1411       
   446    13.9332    8236(91)          8197.6719         8182.1392       
   447    13.9532    8292(91)          8198.4541         8182.1367       
   448    13.9732    8156(90)          8200.3906         8183.1338       
   449    13.9932    8172(90)          8202.5039         8184.1313       
   450    14.0132    8097(90)          8204.8213         8185.1289       
   451    14.0332    8151(90)          8207.3779         8186.1265       
   452    14.0532    8263(91)          8209.2207         8186.1240       
   453    14.0732    8499(92)          8212.4131         8187.1216       
   454    14.0932    8177(90)          8215.0439         8187.1187       
   455    14.1132    8094(90)          8220.2363         8189.1162       
   456    14.1332    8239(91)          8225.1484         8190.1138       
   457    14.1532    8201(91)          8229.9844         8190.1118       
   458    14.1732    8323(91)          8236.9805         8191.1094       
   459    14.1932    8006(89)          8244.4004         8191.1064       
   460    14.2132    8258(91)          8255.5098         8193.1035       
   461    14.2332    8360(91)          8267.5518         8194.1016       
   462    14.2532    8372(91)          8280.7090         8194.0996       
   463    14.2732    8252(91)          8297.0801         8195.0967       
   464    14.2932    8366(91)          8314.6426         8195.0947       
   465    14.3132    8308(91)          8335.1865         8196.0918       
   466    14.3332    8656(93)          8357.2188         8197.0898       
   467    14.3532    8238(91)          8379.7695         8198.0869       
   468    14.3732    8475(92)          8401.1855         8199.0840       
   469    14.3932    8631(93)          8418.0137         8199.0820       
   470    14.4132    8416(92)          8429.3311         8200.0791       
   471    14.4332    8445(92)          8431.7002         8201.0771       
   472    14.4532    8650(93)          8424.3545         8202.0752       
   473    14.4732    8620(93)          8408.6562         8203.0723       
   474    14.4932    8481(92)          8386.4072         8203.0703       
   475    14.5132    8387(92)          8362.6611         8204.0684       
   476    14.5332    8399(92)          8338.9023         8205.0654       
   477    14.5532    8332(91)          8316.8174         8206.0635       
   478    14.5732    8250(91)          8297.3701         8207.0615       
   479    14.5932    8314(91)          8279.9805         8207.0586       
   480    14.6132    8297(91)          8266.6865         8208.0566       
   481    14.6332    8191(91)          8256.2705         8209.0547       
   482    14.6532    8507(92)          8248.3662         8210.0518       
   483    14.6732    8297(91)          8242.5498         8211.0498       
   484    14.6932    8171(90)          8237.4014         8211.0479       
   485    14.7132    8225(91)          8234.5391         8212.0459       
   486    14.7332    8195(91)          8231.6436         8212.0430       
   487    14.7532    8144(90)          8231.4629         8214.0410       
   488    14.7732    8412(92)          8230.7979         8215.0391       
   489    14.7932    8270(91)          8229.5010         8215.0371       
   490    14.8132    8314(91)          8229.4648         8216.0352       
   491    14.8332    8359(91)          8228.6113         8216.0332       
   492    14.8532    8261(91)          8229.8838         8218.0303       
   493    14.8732    8232(91)          8230.2480         8219.0293       
   494    14.8932    8074(90)          8229.6729         8219.0273       
   495    14.9132    8196(91)          8228.4961         8220.0254       
   496    14.9332    8277(91)          8229.0332         8221.0234       
   497    14.9532    8447(92)          8229.5977         8222.0215       
   498    14.9732    8294(91)          8230.1865         8223.0195       
   499    14.9932    8211(91)          8229.7969         8223.0176       
   500    15.0132    8121(90)          8230.4287         8224.0166       
   501    15.0332    8225(91)          8231.0801         8225.0146       
   502    15.0532    8186(90)          8231.7500         8226.0127       
   503    15.0732    8248(91)          8232.4404         8227.0107       
   504    15.0932    8117(90)          8234.1504         8229.0098       
   505    15.1132    8198(91)          8234.8779         8230.0078       
   506    15.1332    8101(90)          8236.6230         8232.0059       
   507    15.1532    8307(91)          8237.3848         8233.0039       
   508    15.1732    8368(91)          8239.1631         8235.0029       
   509    15.1932    8416(92)          8240.9551         8237.0010       
   510    15.2132    8262(91)          8241.7617         8237.9990       
   511    15.2332    8452(92)          8243.5820         8239.9980       
   512    15.2532    8239(91)          8245.4141         8241.9971       
   513    15.2732    8282(91)          8246.2568         8242.9961       
   514    15.2932    8409(92)          8248.1094         8244.9941       
   515    15.3132    8140(90)          8249.9707         8246.9922       
   516    15.3332    8263(91)          8250.8418         8247.9912       
   517    15.3532    8377(92)          8252.7217         8249.9902       
   518    15.3732    8452(92)          8253.6084         8250.9893       
   519    15.3932    8164(90)          8255.5000         8252.9873       
   520    15.4132    8479(92)          8257.4004         8254.9873       
   521    15.4332    8146(90)          8258.3047         8255.9854       
   522    15.4532    8256(91)          8260.2158         8257.9844       
   523    15.4732    8131(90)          8262.1309         8259.9834       
   524    15.4932    8269(91)          8263.0518         8260.9824       
   525    15.5132    8270(91)          8264.9746         8262.9805       
   526    15.5332    8410(92)          8266.9043         8264.9805       
   527    15.5532    8104(90)          8267.8359         8265.9795       
   528    15.5732    8398(92)          8269.7715         8267.9785       
   529    15.5932    8288(91)          8271.7100         8269.9775       
   530    15.6132    8257(91)          8272.6523         8270.9775       
   531    15.6332    8215(91)          8274.5957         8272.9756       
   532    15.6532    8296(91)          8276.5439         8274.9756       
   533    15.6732    8414(92)          8277.4932         8275.9746       
   534    15.6932    8277(91)          8279.4463         8277.9746       
   535    15.7132    8108(90)          8281.4004         8279.9736       
   536    15.7332    8431(92)          8283.3564         8281.9727       
   537    15.7532    8171(90)          8284.3154         8282.9727       
   538    15.7732    8163(90)          8286.2744         8284.9717       
   539    15.7932    8359(91)          8288.2373         8286.9717       
   540    15.8132    8260(91)          8289.2002         8287.9707       
   541    15.8332    8277(91)          8291.1660         8289.9707       
   542    15.8532    8339(91)          8293.1318         8291.9697       
   543    15.8732    8229(91)          8294.0996         8292.9697       
   544    15.8932    8292(91)          8296.0693         8294.9697       
   545    15.9132    8096(90)          8298.0400         8296.9697       
   546    15.9332    8301(91)          8299.0117         8297.9697       
   547    15.9532    8422(92)          8300.9844         8299.9688       
   548    15.9732    8438(92)          8302.9580         8301.9688       
   549    15.9932    8225(91)          8309.0410         8304.9688       
   550    16.0132    8246(91)          8313.0820         8308.9688       
   551    16.0332    8570(93)          8317.1270         8312.9688       
   552    16.0532    8393(92)          8322.1738         8317.9688       
   553    16.0732    8233(91)          8325.2246         8320.9688       
   554    16.0932    8130(90)          8330.2783         8325.9688       
   555    16.1132    8310(91)          8334.3359         8329.9697       
   556    16.1332    8251(91)          8339.3965         8334.9697       
   557    16.1532    8184(90)          8342.4600         8337.9697       
   558    16.1732    8370(91)          8347.5264         8342.9697       
   559    16.1932    8117(90)          8351.5967         8346.9697       
   560    16.2132    8226(91)          8356.6719         8351.9707       
   561    16.2332    8268(91)          8359.7510         8354.9717       
   562    16.2532    8385(92)          8364.8330         8359.9717       
   563    16.2732    8294(91)          8368.9189         8363.9717       
   564    16.2932    8565(93)          8373.0098         8367.9727       
   565    16.3132    8213(91)          8377.1045         8371.9727       
   566    16.3332    8462(92)          8382.2041         8376.9736       
   567    16.3532    8211(91)          8386.3096         8380.9746       
   568    16.3732    8324(91)          8390.4180         8384.9746       
   569    16.3932    8305(91)          8394.5332         8388.9756       
   570    16.4132    8467(92)          8399.6533         8393.9766       
   571    16.4332    8210(91)          8403.7783         8397.9766       
   572    16.4532    8475(92)          8407.9102         8401.9775       
   573    16.4732    8447(92)          8412.0488         8405.9785       
   574    16.4932    8378(92)          8416.6387         8410.9795       
   575    16.5132    8211(91)          8420.8008         8414.9805       
   576    16.5332    8451(92)          8424.9707         8418.9814       
   577    16.5532    8218(91)          8429.1465         8422.9814       
   578    16.5732    8367(91)          8434.3320         8427.9834       
   579    16.5932    8515(92)          8438.5244         8431.9844       
   580    16.6132    8432(92)          8442.7266         8435.9854       
   581    16.6332    8447(92)          8446.9375         8439.9863       
   582    16.6532    8265(91)          8452.1582         8444.9873       
   583    16.6732    8449(92)          8456.3906         8448.9893       
   584    16.6932    8552(92)          8460.6338         8452.9902       
   585    16.7132    8650(93)          8464.8887         8456.9912       
   586    16.7332    8515(92)          8470.1562         8461.9922       
   587    16.7532    8567(93)          8474.4385         8465.9941       
   588    16.7732    8458(92)          8478.7354         8469.9961       
   589    16.7932    8595(93)          8483.0459         8473.9961       
   590    16.8132    8525(92)          8488.3760         8478.9980       
   591    16.8332    8497(92)          8492.7236         8483.0000       
   592    16.8532    8554(92)          8497.0889         8487.0010       
   593    16.8732    8350(91)          8501.4756         8491.0020       
   594    16.8932    8392(92)          8506.8857         8496.0039       
   595    16.9132    8362(91)          8511.3203         8500.0059       
   596    16.9332    8419(92)          8516.7803         8505.0068       
   597    16.9532    8424(92)          8520.2686         8508.0088       
   598    16.9732    8556(92)          8525.7881         8513.0107       
   599    16.9932    8579(93)          8530.3408         8517.0127       
   600    17.0132    8732(93)          8535.9287         8522.0137       
   601    17.0332    8384(92)          8539.5566         8525.0146       
   602    17.0532    8525(92)          8545.2285         8530.0166       
   603    17.0732    8484(92)          8549.9473         8534.0186       
   604    17.0932    8653(93)          8555.7188         8539.0205       
   605    17.1132    8678(93)          8560.5459         8543.0225       
   606    17.1332    8571(93)          8565.4375         8547.0244       
   607    17.1532    8615(93)          8570.3994         8551.0264       
   608    17.1732    8778(94)          8577.4404         8557.0283       
   609    17.1932    8772(94)          8582.5693         8561.0303       
   610    17.2132    8640(93)          8587.7979         8565.0322       
   611    17.2332    8727(93)          8593.1406         8569.0342       
   612    17.2532    8480(92)          8599.6133         8574.0361       
   613    17.2732    8643(93)          8605.2373         8578.0381       
   614    17.2932    8434(92)          8612.0361         8583.0400       
   615    17.3132    8538(92)          8617.0400         8586.0420       
   616    17.3332    8674(93)          8624.2842         8591.0439       
   617    17.3532    8713(93)          8630.8115         8595.0459       
   618    17.3732    8537(92)          8638.6738         8600.0488       
   619    17.3932    8713(93)          8644.9287         8603.0508       
   620    17.4132    8825(94)          8653.6475         8608.0527       
   621    17.4332    8762(94)          8661.9111         8612.0547       
   622    17.4532    8775(94)          8671.8125         8617.0566       
   623    17.4732    8583(93)          8681.4600         8621.0586       
   624    17.4932    8990(95)          8691.9834         8625.0605       
   625    17.5132    8943(95)          8703.5361         8629.0625       
   626    17.5332    8920(94)          8717.3203         8634.0664       
   627    17.5532    8876(94)          8731.6025         8638.0684       
   628    17.5732    8942(95)          8747.7539         8642.0703       
   629    17.5932    8779(94)          8766.3008         8646.0723       
   630    17.6132    9013(95)          8788.9746         8651.0742       
   631    17.6332    9029(95)          8814.7676         8655.0762       
   632    17.6532    9052(95)          8846.9570         8660.0801       
   633    17.6732    8807(94)          8884.0820         8663.0820       
   634    17.6932    9084(95)          8931.8691         8668.0840       
   635    17.7132    9115(95)          8990.1016         8673.0859       
   636    17.7332    9185(96)          9059.3955         8677.0879       
   637    17.7532    8809(94)          9141.9873         8681.0908       
   638    17.7732    9150(96)          9238.4619         8685.0938       
   639    17.7932    9228(96)          9349.4570         8690.0957       
   640    17.8132    9294(96)          9471.0674         8694.0977       
   641    17.8332    9223(96)          9599.9160         8698.0996       
   642    17.8532    9216(96)          9727.7178         8702.1025       
   643    17.8732    9359(97)          9841.9600         8707.1055       
   644    17.8932    9137(96)          9922.6465         8711.1074       
   645    17.9132    9374(97)          9954.2607         8716.1094       
   646    17.9332    9100(95)          9925.1963         8719.1123       
   647    17.9532    9346(97)          9845.0283         8724.1152       
   648    17.9732    9261(96)          9727.3477         8728.1172       
   649    17.9932    9163(96)          9593.6260         8733.1191       
   650    18.0132    9104(95)          9456.9121         8736.1211       
   651    18.0332    8857(94)          9331.8945         8741.1240       
   652    18.0532    9431(97)          9221.4688         8745.1270       
   653    18.0732    8815(94)          9130.0645         8750.1289       
   654    18.0932    9085(95)          9054.7021         8753.1309       
   655    18.1132    8993(95)          8997.8916         8758.1338       
   656    18.1332    9178(96)          8954.2969         8762.1367       
   657    18.1532    9175(96)          8923.3164         8767.1387       
   658    18.1732    8995(95)          8899.4326         8770.1406       
   659    18.1932    8833(94)          8884.4404         8775.1426       
   660    18.2132    8728(93)          8873.5293         8779.1465       
   661    18.2332    8808(94)          8867.2852         8784.1484       
   662    18.2532    8937(95)          8862.6514         8788.1504       
   663    18.2732    9116(95)          8859.8564         8792.1523       
   664    18.2932    8799(94)          8859.3486         8797.1543       
   665    18.3132    8950(95)          8858.7441         8801.1572       
   666    18.3332    8954(95)          8858.7793         8805.1602       
   667    18.3532    8894(94)          8859.2744         8809.1621       
   668    18.3732    8839(94)          8861.1143         8814.1641       
   669    18.3932    8885(94)          8862.2217         8818.1660       
   670    18.4132    8799(94)          8863.5488         8822.1689       
   671    18.4332    8717(93)          8865.0635         8826.1709       
   672    18.4532    8968(95)          8867.7471         8831.1738       
   673    18.4732    9001(95)          8868.5840         8834.1758       
   674    18.4932    8964(95)          8871.5674         8839.1777       
   675    18.5132    9089(95)          8873.6875         8843.1797       
   676    18.5332    8881(94)          8876.9395         8848.1826       
   677    18.5532    9039(95)          8879.3135         8852.1846       
   678    18.5732    8885(94)          8882.8047         8857.1865       
   679    18.5932    8963(95)          8886.4043         8862.1885       
   680    18.6132    8779(94)          8891.1064         8868.1904       
   681    18.6332    8786(94)          8894.9033         8873.1924       
   682    18.6532    8920(94)          8899.7871         8879.1943       
   683    18.6732    8989(95)          8904.7520         8885.1973       
   684    18.6932    9126(96)          8908.7900         8890.1992       
   685    18.7132    8775(94)          8913.8955         8896.2012       
   686    18.7332    8858(94)          8918.0625         8901.2031       
   687    18.7532    9023(95)          8923.2871         8907.2051       
   688    18.7732    8767(94)          8927.5625         8912.2070       
   689    18.7932    8889(94)          8932.8867         8918.2090       
   690    18.8132    8840(94)          8938.2539         8924.2109       
   691    18.8332    8882(94)          8942.6602         8929.2129       
   692    18.8532    8984(95)          8948.1045         8935.2148       
   693    18.8732    8889(94)          8953.5820         8941.2168       
   694    18.8932    8885(94)          8957.0908         8945.2188       
   695    18.9132    8903(94)          8962.6289         8951.2207       
   696    18.9332    9382(97)          8968.1934         8957.2227       
   697    18.9532    8991(95)          8972.7822         8962.2246       
   698    18.9732    9038(95)          8978.3936         8968.2266       
   699    18.9932    8940(95)          8984.0254         8974.2275       
   700    19.0132    8959(95)          8989.6777         8980.2295       
   701    19.0332    8882(94)          8994.3486         8985.2314       
   702    19.0532    9150(96)          8999.0361         8990.2334       
   703    19.0732    8931(95)          9004.7393         8996.2344       
   704    19.0932    8821(94)          9009.4570         9001.2354       
   705    19.1132    9217(96)          9015.1895         9007.2373       
   706    19.1332    9124(96)          9020.9346         9013.2393       
   707    19.1532    8951(95)          9025.6924         9018.2412       
   708    19.1732    9155(96)          9031.4609         9024.2422       
   709    19.1932    9124(96)          9041.6855         9030.2441       
   710    19.2132    9125(96)          9045.5723         9034.2451       
   711    19.2332    9020(95)          9051.4717         9040.2461       
   712    19.2532    8889(94)          9057.3848         9046.2480       
   713    19.2732    9179(96)          9062.3096         9051.2500       
   714    19.2932    9121(96)          9068.2441         9057.2500       
   715    19.3132    9282(96)          9074.1914         9063.2520       
   716    19.3332    9226(96)          9079.1494         9068.2529       
   717    19.3532    9128(96)          9085.1191         9074.2539       
   718    19.3732    9104(95)          9089.1514         9078.2549       
   719    19.3932    8778(94)          9095.1445         9084.2568       
   720    19.4132    9027(95)          9101.1455         9090.2568       
   721    19.4332    9087(95)          9106.1592         9095.2588       
   722    19.4532    9022(95)          9112.1826         9101.2598       
   723    19.4732    9181(96)          9118.2168         9107.2607       
   724    19.4932    9180(96)          9123.2617         9112.2617       
   725    19.5132    9187(96)          9129.3174         9118.2627       
   726    19.5332    9345(97)          9135.3838         9124.2637       
   727    19.5532    9063(95)          9139.4619         9128.2646       
   728    19.5732    9264(96)          9145.5508         9134.2656       
   729    19.5932    9073(95)          9150.6504         9139.2666       
   730    19.6132    9175(96)          9156.7617         9145.2666       
   731    19.6332    9497(97)          9162.8857         9151.2676       
   732    19.6532    9303(96)          9168.0225         9156.2686       
   733    19.6732    9023(95)          9173.1709         9161.2686       
   734    19.6932    9102(95)          9178.3340         9166.2695       
   735    19.7132    9124(96)          9183.5098         9171.2705       
   736    19.7332    9225(96)          9188.7012         9176.2715       
   737    19.7532    9184(96)          9192.9062         9180.2715       
   738    19.7732    9368(97)          9199.1260         9186.2715       
   739    19.7932    9282(96)          9204.3643         9191.2725       
   740    19.8132    9317(97)          9208.6182         9195.2725       
   741    19.8332    9437(97)          9214.8906         9201.2725       
   742    19.8532    9091(95)          9216.1250         9205.2725       
   743    19.8732    9069(95)          9221.5000         9210.2734       
   744    19.8932    9256(96)          9227.8936         9216.2744       
   745    19.9132    9289(96)          9232.3076         9220.2744       
   746    19.9332    9083(95)          9237.7451         9225.2744       
   747    19.9532    9357(97)          9243.2051         9230.2744       
   748    19.9732    9180(96)          9248.6924         9235.2744       
   749    19.9932    9243(96)          9254.2070         9240.2744       
   750    20.0132    9350(97)          9259.7510         9245.2744       
   751    20.0332    9258(96)          9265.3281         9250.2744       
   752    20.0532    9447(97)          9269.9404         9254.2744       
   753    20.0732    9561(98)          9276.5908         9260.2744       
   754    20.0932    9104(95)          9282.2822         9265.2744       
   755    20.1132    9382(97)          9287.0166         9269.2734       
   756    20.1332    9459(97)          9293.8008         9275.2734       
   757    20.1532    9370(97)          9298.6387         9279.2734       
   758    20.1732    9134(96)          9304.5332         9284.2734       
   759    20.1932    9267(96)          9310.4922         9289.2734       
   760    20.2132    9487(97)          9316.5186         9294.2725       
   761    20.2332    9249(96)          9322.6230         9299.2725       
   762    20.2532    9276(96)          9328.8115         9304.2725       
   763    20.2732    9385(97)          9335.0918         9309.2715       
   764    20.2932    9151(96)          9340.4775         9313.2715       
   765    20.3132    9358(97)          9347.9785         9319.2705       
   766    20.3332    9430(97)          9353.6104         9323.2705       
   767    20.3532    9447(97)          9360.3896         9328.2695       
   768    20.3732    9395(97)          9368.3359         9334.2686       
   769    20.3932    9638(98)          9374.4756         9338.2686       
   770    20.4132    9555(98)          9381.8369         9343.2676       
   771    20.4332    9526(98)          9389.4580         9348.2676       
   772    20.4532    9616(98)          9402.5342         9353.2656       
   773    20.4732    9456(97)          9409.9277         9357.2646       
   774    20.4932    9339(97)          9419.7451         9363.2646       
   775    20.5132    9370(97)          9429.0625         9368.2637       
   776    20.5332    9614(98)          9437.9717         9372.2627       
   777    20.5532    9460(97)          9449.5820         9378.2617       
   778    20.5732    9542(98)          9460.0166         9382.2598       
   779    20.5932    9662(98)          9472.4268         9387.2598       
   780    20.6132    9513(98)          9487.9316         9393.2588       
   781    20.6332    9618(98)          9506.8682         9402.2568       
   782    20.6532    9404(97)          9526.4297         9410.2568       
   783    20.6732    9565(98)          9547.9648         9418.2549       
   784    20.6932    9788(99)          9571.9590         9426.2539       
   785    20.7132    9644(98)          9599.1035         9434.2520       
   786    20.7332    9512(98)          9631.3916         9443.2510       
   787    20.7532    9811(99)          9667.2070         9450.2510       
   788    20.7732    9312(96)          9712.4043         9459.2490       
   789    20.7932    9831(99)          9766.3477         9467.2471       
   790    20.8132    10197(101)          9832.8066         9475.2461     
   791    20.8332    9703(99)          9914.7666         9483.2441       
   792    20.8532    9775(99)         10015.1045         9491.2432       
   793    20.8732    9962(100)         10137.2129         9500.2412      
   794    20.8932    10172(101)         10279.4834         9507.2402     
   795    20.9132    10076(100)         10445.7324         9516.2383     
   796    20.9332    10526(103)         10630.2695         9524.2363     
   797    20.9532    10825(104)         10827.2480         9532.2354     
   798    20.9732    10966(105)         11023.2637         9540.2334     
   799    20.9932    11223(106)         11195.9785         9548.2314     
   800    21.0132    11345(107)         11316.6396         9557.2305     
   801    21.0332    11639(108)         11355.5361         9565.2285     
   802    21.0532    11301(106)         11302.8271         9573.2266     
   803    21.0732    11219(106)         11171.8311         9581.2246     
   804    21.0932    10941(105)         10991.9043         9589.2236     
   805    21.1132    10768(104)         10793.8389         9597.2217     
   806    21.1332    10609(103)         10600.8037         9605.2197     
   807    21.1532    10465(102)         10427.8906         9614.2168     
   808    21.1732    10262(101)         10279.8438         9622.2158     
   809    21.1932    10200(101)         10159.2979         9630.2139     
   810    21.2132    10265(101)         10064.6152         9638.2119     
   811    21.2332    10352(102)          9992.4824         9646.2100     
   812    21.2532    10167(101)          9939.0117         9654.2070     
   813    21.2732    10218(101)          9901.4404         9663.2051     
   814    21.2932    10252(101)          9874.4111         9671.2041     
   815    21.3132    10079(100)          9856.1152         9679.2021     
   816    21.3332    10046(100)          9844.3018         9687.1992     
   817    21.3532    10083(100)          9837.2422         9695.1973     
   818    21.3732    9955(100)          9834.6475         9704.1953      
   819    21.3932    10035(100)          9832.5811         9711.1924     
   820    21.4132    9994(100)          9834.3740         9720.1904      
   821    21.4332    10026(100)          9836.5518         9728.1885     
   822    21.4532    9861(99)          9839.7842         9736.1855       
   823    21.4732    9938(100)          9851.6562         9745.1836      
   824    21.4932    9916(100)          9855.5488         9752.1807      
   825    21.5132    9825(99)          9858.0264         9757.1787       
   826    21.5332    9811(99)          9861.0244         9762.1768       
   827    21.5532    9812(99)          9863.5059         9766.1738       
   828    21.5732    9983(100)          9868.4551         9772.1719      
   829    21.5932    9724(99)          9871.8643         9776.1689       
   830    21.6132    9830(99)          9876.7383         9781.1670       
   831    21.6332    9899(99)          9882.0889         9786.1641       
   832    21.6532    9914(100)          9887.9404         9791.1621      
   833    21.6732    9961(100)          9894.3232         9796.1602      
   834    21.6932    9805(99)          9901.2783         9801.1572       
   835    21.7132    10059(100)          9907.8623         9805.1553     
   836    21.7332    10124(101)          9917.1445         9811.1523     
   837    21.7532    9910(100)          9926.2129         9816.1504      
   838    21.7732    10236(101)          9935.1738         9820.1475     
   839    21.7932    9866(99)          9947.1562         9826.1445       
   840    21.8132    10022(100)          9959.3174         9831.1426     
   841    21.8332    9995(100)          9971.8389         9835.1396      
   842    21.8532    10112(101)          9986.9463         9840.1377     
   843    21.8732    10145(101)         10004.9180         9846.1348     
   844    21.8932    10027(100)         10023.1191         9850.1328     
   845    21.9132    10366(102)         10045.0410         9855.1289     
   846    21.9332    10183(101)         10070.3877         9860.1270     
   847    21.9532    10104(101)         10100.1631         9865.1240     
   848    21.9732    10259(101)         10135.8115         9870.1211     
   849    21.9932    10018(100)         10179.3164         9875.1191     
   850    22.0132    10426(102)         10232.2764         9879.1162     
   851    22.0332    10292(101)         10300.8779         9885.1143     
   852    22.0532    10423(102)         10385.7393         9890.1113     
   853    22.0732    10525(103)         10491.5605         9895.1094     
   854    22.0932    10561(103)         10620.6836         9899.1064     
   855    22.1132    10660(103)         10778.5225         9905.1025     
   856    22.1332    10678(103)         10962.9688         9910.1006     
   857    22.1532    10890(104)         11172.3330         9914.0977     
   858    22.1732    11311(106)         11402.7539         9919.0947     
   859    22.1932    11474(107)         11641.4131         9925.0928     
   860    22.2132    11384(107)         11863.4072         9930.0898     
   861    22.2332    11436(107)         12035.3203         9934.0879     
   862    22.2532    11423(107)         12123.8184         9939.0850     
   863    22.2732    11262(106)         12109.3145         9945.0820     
   864    22.2932    11502(107)         11999.0918         9950.0791     
   865    22.3132    11643(108)         11826.5820         9955.0762     
   866    22.3332    11214(106)         11628.2500         9959.0732     
   867    22.3532    11291(106)         11435.8330         9965.0713     
   868    22.3732    11078(105)         11261.2021         9969.0684     
   869    22.3932    11017(105)         11111.8545         9974.0664     
   870    22.4132    11060(105)         10982.1152         9978.0635     
   871    22.4332    11017(105)         10869.8516         9984.0605     
   872    22.4532    10912(104)         10762.8555         9989.0586     
   873    22.4732    10805(104)         10663.0703         9994.0557     
   874    22.4932    10865(104)         10572.5000         9999.0527     
   875    22.5132    10612(103)         10494.4062        10005.0498     
   876    22.5332    10567(103)         10426.8760        10009.0469     
   877    22.5532    10525(103)         10372.7607        10014.0449     
   878    22.5732    10537(103)         10331.1348        10020.0420     
   879    22.5932    10373(102)         10298.6562        10025.0391     
   880    22.6132    10209(101)         10274.8076        10030.0371     
   881    22.6332    10355(102)         10258.0635        10035.0342     
   882    22.6532    10349(102)         10247.0303        10040.0322     
   883    22.6732    10268(101)         10240.5127        10045.0293     
   884    22.6932    10303(102)         10237.5596        10050.0273     
   885    22.7132    10241(101)         10233.4619        10051.0244     
   886    22.7332    10202(101)         10232.7295        10053.0215     
   887    22.7532    10308(102)         10233.0615        10054.0195     
   888    22.7732    10117(101)         10235.3018        10055.0166     
   889    22.7932    10206(101)         10240.4180        10057.0146     
   890    22.8132    10295(101)         10246.4707        10058.0117     
   891    22.8332    10381(102)         10253.6074        10058.0098     
   892    22.8532    10133(101)         10265.0488        10060.0068     
   893    22.8732    10027(100)         10278.1182        10061.0049     
   894    22.8932    10039(100)         10289.9111        10062.0020     
   895    22.9132    10232(101)         10310.8301        10064.0000     
   896    22.9332    10182(101)         10335.3496        10064.9971     
   897    22.9532    10169(101)         10365.8174        10065.9951     
   898    22.9732    10388(102)         10404.1680        10066.9922     
   899    22.9932    10267(101)         10454.0977        10068.9902     
   900    23.0132    10501(102)         10517.1514        10069.9873     
   901    23.0332    10341(102)         10598.6729        10070.9854     
   902    23.0532    10520(103)         10704.5742        10072.9834     
   903    23.0732    10871(104)         10837.7676        10073.9814     
   904    23.0932    10786(104)         11003.7246        10074.9785     
   905    23.1132    11125(105)         11206.3291        10076.9766     
   906    23.1332    11485(107)         11444.1465        10077.9736     
   907    23.1532    11549(107)         11714.7793        10078.9717     
   908    23.1732    11928(109)         12009.3662        10080.9697     
   909    23.1932    12422(111)         12305.4668        10081.9678     
   910    23.2132    12760(113)         12568.9590        10082.9658     
   911    23.2332    13310(115)         12752.2461        10084.9629     
   912    23.2532    13406(116)         12806.4590        10085.9609     
   913    23.2732    13393(116)         12713.0684        10086.9600     
   914    23.2932    13107(114)         12494.4424        10088.9570     
   915    23.3132    12620(112)         12197.1514        10089.9551     
   916    23.3332    12276(111)         11873.6318        10091.9531     
   917    23.3532    11561(108)         11560.1865        10093.9512     
   918    23.3732    11108(105)         11277.8213        10094.9492     
   919    23.3932    10980(105)         11037.8545        10095.9473     
   920    23.4132    10739(104)         10843.5928        10097.9463     
   921    23.4332    10645(103)         10690.3105        10098.9434     
   922    23.4532    10317(102)         10573.4316        10099.9414     
   923    23.4732    10446(102)         10487.2959        10101.9404     
   924    23.4932    10188(101)         10423.2949        10102.9385     
   925    23.5132    10417(102)         10377.6045        10104.9355     
   926    23.5332    10382(102)         10344.4912        10106.9346     
   927    23.5532    10286(101)         10319.3125        10107.9326     
   928    23.5732    10072(100)         10300.4131        10108.9316     
   929    23.5932    10264(101)         10286.9082        10110.9297     
   930    23.6132    10496(102)         10275.5088        10111.9287     
   931    23.6332    10339(102)         10267.3457        10113.9268     
   932    23.6532    10211(101)         10258.8506        10113.9238     
   933    23.6732    10285(101)         10251.6670        10113.9229     
   934    23.6932    10347(102)         10244.5684        10112.9219     
   935    23.7132    10431(102)         10238.4238        10111.9199     
   936    23.7332    10179(101)         10234.1699        10111.9189     
   937    23.7532    10455(102)         10229.7812        10110.9170     
   938    23.7732    10119(101)         10226.2676        10109.9160     
   939    23.7932    10353(102)         10223.6592        10108.9141     
   940    23.8132    10417(102)         10223.0146        10108.9131     
   941    23.8332    10484(102)         10222.4160        10107.9121     
   942    23.8532    10364(102)         10224.1797        10106.9102     
   943    23.8732    10332(102)         10226.1230        10105.9092     
   944    23.8932    10091(100)         10230.6865        10105.9072     
   945    23.9132    10149(101)         10236.2822        10104.9062     
   946    23.9332    10331(102)         10244.5078        10103.9053     
   947    23.9532    10285(101)         10257.2041        10103.9043     
   948    23.9732    10255(101)         10273.4697        10102.9033     
   949    23.9932    10337(102)         10296.6436        10102.9023     
   950    24.0132    10475(102)         10327.2129        10102.9014     
   951    24.0332    10085(100)         10365.6377        10101.9004     
   952    24.0532    10303(102)         10414.1680        10100.8984     
   953    24.0732    10434(102)         10474.5479        10100.8975     
   954    24.0932    10573(103)         10539.7109        10099.8975     
   955    24.1132    10432(102)         10619.2539        10098.8965     
   956    24.1332    10406(102)         10705.3809        10098.8955     
   957    24.1532    10358(102)         10788.7383        10097.8945     
   958    24.1732    10084(100)         10858.3271        10096.8936     
   959    24.1932    10478(102)         10900.0010        10096.8926     
   960    24.2132    10451(102)         10899.5254        10095.8916     
   961    24.2332    10346(102)         10857.1094        10095.8916     
   962    24.2532    10242(101)         10779.8701        10094.8906     
   963    24.2732    10240(101)         10686.2803        10093.8896     
   964    24.2932    10172(101)         10590.3037        10093.8896     
   965    24.3132    10439(102)         10500.3174        10093.8887     
   966    24.3332    10347(102)         10421.4043        10093.8877     
   967    24.3532    10117(101)         10354.5684        10092.8877     
   968    24.3732    10273(101)         10301.7744        10092.8867     
   969    24.3932    10259(101)         10259.7891        10091.8867     
   970    24.4132    10291(101)         10228.7539        10091.8857     
   971    24.4332    10260(101)         10204.6523        10090.8857     
   972    24.4532    10270(101)         10187.5889        10090.8848     
   973    24.4732    10057(100)         10173.9688        10089.8857     
   974    24.4932    10099(100)         10164.5254        10089.8848     
   975    24.5132    10169(101)         10156.3193        10088.8848     
   976    24.5332    10292(101)         10150.6699        10088.8838     
   977    24.5532    10338(102)         10145.1074        10087.8838     
   978    24.5732    10279(101)         10141.3105        10087.8838     
   979    24.5932    10145(101)         10137.0654        10086.8838     
   980    24.6132    10036(100)         10134.2305        10086.8838     
   981    24.6332    10002(100)         10131.7119        10086.8828     
   982    24.6532    10031(100)         10129.4512        10086.8828     
   983    24.6732    10340(102)         10121.4082        10080.8838     
   984    24.6932    10054(100)         10114.5537        10075.8828     
   985    24.7132    9880(99)         10107.8701        10070.8828       
   986    24.7332    10272(101)         10101.3438        10065.8828     
   987    24.7532    10154(101)         10095.9629        10061.8828     
   988    24.7732    10256(101)         10088.7188        10055.8828     
   989    24.7932    10339(102)         10083.6035        10051.8828     
   990    24.8132    10100(100)         10076.6113        10045.8838     
   991    24.8332    10323(102)         10071.7334        10041.8838     
   992    24.8532    10256(101)         10065.9658        10036.8838     
   993    24.8732    10341(102)         10060.3027        10031.8838     
   994    24.8932    10095(100)         10054.7422        10026.8838     
   995    24.9132    10051(100)         10048.2803        10020.8848     
   996    24.9332    9981(100)         10043.9160        10016.8848      
   997    24.9532    9960(100)         10038.6484        10011.8857      
   998    24.9732    9989(100)         10033.4775        10006.8848      
   999    24.9932    9983(100)         10028.4102        10001.8857      
  1000    25.0132    10188(101)         10024.4473         9997.8857     
  1001    25.0332    9988(100)         10018.5986         9991.8867      
  1002    25.0532    9891(99)         10008.2197         9987.8867       
  1003    25.0732    10143(101)         10003.7754         9982.8877     
  1004    25.0932    10176(101)          9999.4785         9977.8877     
  1005    25.1132    9816(99)          9995.3516         9972.8887       
  1006    25.1332    10019(100)          9991.4199         9967.8887     
  1007    25.1532    10163(101)          9987.7168         9962.8896     
  1008    25.1732    9934(100)          9984.2783         9957.8906      
  1009    25.1932    10047(100)          9982.1514         9953.8906     
  1010    25.2132    10032(100)          9978.3926         9947.8916     
  1011    25.2332    10042(100)          9978.0713         9944.8916     
  1012    25.2532    9965(100)          9979.2861         9942.8926      
  1013    25.2732    9895(99)          9980.1680         9939.8936       
  1014    25.2932    10047(100)          9981.9082         9936.8936     
  1015    25.3132    10006(100)          9985.7949         9934.8945     
  1016    25.3332    10075(100)          9990.2354         9931.8955     
  1017    25.3532    10217(101)          9996.7930         9928.8955     
  1018    25.3732    10096(100)         10007.2090         9926.8975     
  1019    25.3932    9808(99)         10020.3672         9923.8984       
  1020    25.4132    10316(102)         10039.2441         9921.8984     
  1021    25.4332    10127(101)         10062.7910         9918.8994     
  1022    25.4532    9920(100)         10092.7910         9915.9004      
  1023    25.4732    10110(101)         10130.6631         9913.9014     
  1024    25.4932    9840(99)         10175.2295         9911.9023       
  1025    25.5132    10047(100)         10223.3193         9907.9033     
  1026    25.5332    10245(101)         10276.0938         9905.9043     
  1027    25.5532    10175(101)         10326.1553         9903.9053     
  1028    25.5732    10428(102)         10364.0820         9900.9053     
  1029    25.5932    10057(100)         10382.1631         9898.9072     
  1030    25.6132    10115(101)         10372.0420         9895.9082     
  1031    25.6332    10054(100)         10336.0137         9892.9092     
  1032    25.6532    10057(100)         10283.1934         9890.9102     
  1033    25.6732    10031(100)         10222.6074         9888.9111     
  1034    25.6932    9988(100)         10161.2549         9885.9121      
  1035    25.7132    9958(100)         10105.0518         9882.9131      
  1036    25.7332    9964(100)         10057.4053         9880.9141      
  1037    25.7532    10242(101)         10017.0020         9877.9160     
  1038    25.7732    10227(101)          9985.4609         9875.9170     
  1039    25.7932    10098(100)          9960.8018         9873.9170     
  1040    25.8132    9830(99)          9939.8066         9869.9189       
  1041    25.8332    10061(100)          9925.2344         9867.9199     
  1042    25.8532    10034(100)          9913.9785         9865.9209     
  1043    25.8732    9953(100)          9904.1260         9862.9219      
  1044    25.8932    9915(100)          9896.9814         9860.9238      
  1045    25.9132    9727(99)          9891.0273         9858.9248       
  1046    25.9332    9924(100)          9883.9023         9854.9258      
  1047    25.9532    9823(99)          9879.3564         9852.9268       
  1048    25.9732    10017(100)          9875.2207         9850.9277     
  1049    25.9932    9878(99)          9868.4648         9847.9287       
  1050    26.0132    10073(100)          9864.8926         9845.9307     
  1051    26.0332    9903(100)          9861.4912         9843.9316      
  1052    26.0532    9557(98)          9856.2305         9839.9336       
  1053    26.0732    9753(99)          9853.0859         9837.9346       
  1054    26.0932    9942(100)          9850.0420         9835.9355      
  1055    26.1132    9899(99)          9846.0898         9832.9375       
  1056    26.1332    9757(99)          9843.2168         9830.9375       
  1057    26.1532    9714(99)          9840.4180         9828.9385       
  1058    26.1732    9876(99)          9836.6885         9825.9404       
  1059    26.1932    9911(100)          9833.0186         9822.9414      
  1060    26.2132    10003(100)          9830.4062         9820.9434     
  1061    26.2332    9897(99)          9826.8438         9817.9443       
  1062    26.2532    9775(99)          9824.3271         9815.9453       
  1063    26.2732    9727(99)          9821.8545         9813.9473       
  1064    26.2932    9685(98)          9818.4180         9810.9482       
  1065    26.3132    9903(100)          9816.0176         9808.9502      
  1066    26.3332    9979(100)          9812.6465         9805.9512      
  1067    26.3532    9805(99)          9809.3037         9802.9512       
  1068    26.3732    9819(99)          9805.9873         9799.9531       
  1069    26.3932    9790(99)          9802.6934         9796.9541       
  1070    26.4132    10077(100)          9799.4199         9793.9551     
  1071    26.4332    9735(99)          9796.1670         9790.9570       
  1072    26.4532    9876(99)          9792.9307         9787.9580       
  1073    26.4732    9791(99)          9787.7100         9782.9600       
  1074    26.4932    9846(99)          9784.5039         9779.9609       
  1075    26.5132    10068(100)          9781.3105         9776.9619     
  1076    26.5332    9774(99)          9778.1299         9773.9629       
  1077    26.5532    9711(99)          9773.9600         9769.9639       
  1078    26.5732    9796(99)          9770.8008         9766.9658       
  1079    26.5932    9693(98)          9767.6514         9763.9668       
  1080    26.6132    9742(99)          9763.5098         9759.9678       
  1081    26.6332    9648(98)          9760.3770         9756.9697       
  1082    26.6532    9430(97)          9756.2510         9752.9707       
  1083    26.6732    9599(98)          9753.1318         9749.9717       
  1084    26.6932    9666(98)          9750.0195         9746.9727       
  1085    26.7132    9922(100)          9746.9131         9743.9736      
  1086    26.7332    9764(99)          9742.8135         9739.9756       
  1087    26.7532    9752(99)          9738.7168         9735.9766       
  1088    26.7732    9826(99)          9735.6260         9732.9775       
  1089    26.7932    9811(99)          9733.5410         9730.9795       
  1090    26.8132    9910(100)          9729.4580         9726.9795      
  1091    26.8332    9653(98)          9726.3799         9723.9805       
  1092    26.8532    9838(99)          9723.3066         9720.9824       
  1093    26.8732    9762(99)          9720.2354         9717.9834       
  1094    26.8932    9618(98)          9716.1680         9713.9844       
  1095    26.9132    9858(99)          9712.1025         9709.9854       
  1096    26.9332    9968(100)          9709.0410         9706.9863      
  1097    26.9532    10002(100)          9705.9824         9703.9873     
  1098    26.9732    9933(100)          9702.9268         9700.9893      
  1099    26.9932    9827(99)          9698.8721         9696.9893       
  1100    27.0132    9630(98)          9694.8203         9692.9902       
  1101    27.0332    9978(100)          9691.7705         9689.9912      
  1102    27.0532    9515(98)          9688.7246         9686.9932       
  1103    27.0732    9658(98)          9684.6777         9682.9932       
  1104    27.0932    9601(98)          9681.6348         9679.9941       
  1105    27.1132    9948(100)          9677.5928         9675.9951      
  1106    27.1332    9757(99)          9674.5518         9672.9961       
  1107    27.1532    9635(98)          9671.5137         9669.9971       
  1108    27.1732    9604(98)          9667.4766         9665.9980       
  1109    27.1932    9840(99)          9663.4395         9661.9980       
  1110    27.2132    9600(98)          9658.4062         9657.0000       
  1111    27.2332    9410(97)          9653.3730         9652.0010       
  1112    27.2532    9328(97)          9648.3398         9647.0010       
  1113    27.2732    9605(98)          9643.3096         9642.0020       
  1114    27.2932    9419(97)          9663.2783         9637.0029       
  1115    27.3132    9501(97)          9657.8457         9631.0039       
  1116    27.3332    9929(100)          9654.4365         9627.0049      
  1117    27.3532    9478(97)          9648.8623         9622.0049       
  1118    27.3732    9546(98)          9644.5264         9617.0059       
  1119    27.3932    9718(99)          9640.2158         9612.0059       
  1120    27.4132    9815(99)          9643.4863         9606.0068       
  1121    27.4332    9702(98)          9639.4355         9601.0078       
  1122    27.4532    9626(98)          9636.4209         9597.0078       
  1123    27.4732    9685(98)          9632.4463         9592.0098       
  1124    27.4932    9472(97)          9627.5107         9586.0098       
  1125    27.5132    9809(99)          9623.6143         9581.0107       
  1126    27.5332    9304(96)          9619.7656         9576.0107       
  1127    27.5532    9602(98)          9615.9648         9571.0117       
  1128    27.5732    9663(98)          9612.2139         9566.0117       
  1129    27.5932    9873(99)          9608.5146         9561.0117       
  1130    27.6132    9539(98)          9604.8721         9556.0127       
  1131    27.6332    9506(97)          9601.2881         9551.0127       
  1132    27.6532    9648(98)          9596.7676         9545.0137       
  1133    27.6732    9472(97)          9593.3115         9540.0137       
  1134    27.6932    9710(99)          9590.9258         9536.0137       
  1135    27.7132    9648(98)          9586.6152         9530.0146       
  1136    27.7332    9498(97)          9583.3828         9525.0146       
  1137    27.7532    9940(100)          9580.2354         9520.0156      
  1138    27.7732    9684(98)          9576.1768         9514.0156       
  1139    27.7932    9629(98)          9573.2129         9509.0156       
  1140    27.8132    9552(98)          9571.3506         9505.0156       
  1141    27.8332    9602(98)          9567.5967         9499.0156       
  1142    27.8532    9622(98)          9564.9590         9494.0156       
  1143    27.8732    9660(98)          9562.4453         9489.0156       
  1144    27.8932    9359(97)          9559.0645         9483.0156       
  1145    27.9132    9478(97)          9556.8262         9478.0166       
  1146    27.9332    9698(98)          9555.7402         9474.0166       
  1147    27.9532    9617(98)          9551.8184         9467.0166       
  1148    27.9732    9741(99)          9550.0732         9462.0156       
  1149    27.9932    9534(98)          9547.5205         9456.0166       
  1150    28.0132    9582(98)          9545.1719         9450.0166       
  1151    28.0332    9628(98)          9543.0459         9444.0166       
  1152    28.0532    9494(97)          9541.1611         9438.0166       
  1153    28.0732    9646(98)          9539.5371         9432.0156       
  1154    28.0932    9568(98)          9539.1973         9427.0156       
  1155    28.1132    9434(97)          9537.1660         9420.0156       
  1156    28.1332    9516(98)          9537.4717         9415.0156       
  1157    28.1532    9581(98)          9536.1436         9408.0146       
  1158    28.1732    9654(98)          9537.2197         9403.0146       
  1159    28.1932    9462(97)          9537.7363         9397.0146       
  1160    28.2132    9432(97)          9537.7373         9390.0137       
  1161    28.2332    9334(97)          9540.2744         9385.0146       
  1162    28.2532    9590(98)          9541.4004         9378.0137       
  1163    28.2732    9442(97)          9545.1807         9373.0127       
  1164    28.2932    9611(98)          9547.6904         9366.0127       
  1165    28.3132    9329(97)          9553.0137         9361.0127       
  1166    28.3332    9782(99)          9557.2480         9354.0117       
  1167    28.3532    9593(98)          9564.5107         9349.0117       
  1168    28.3732    9410(97)          9570.9395         9342.0107       
  1169    28.3932    9460(97)          9580.7012         9337.0107       
  1170    28.4132    9584(98)          9589.9922         9330.0098       
  1171    28.4332    9525(98)          9603.0537         9325.0098       
  1172    28.4532    9575(98)          9616.1816         9318.0098       
  1173    28.4732    9620(98)          9633.7295         9313.0078       
  1174    28.4932    9462(97)          9652.1387         9306.0078       
  1175    28.5132    9618(98)          9674.9326         9300.0068       
  1176    28.5332    9507(98)          9701.7598         9294.0068       
  1177    28.5532    9812(99)          9733.3867         9288.0059       
  1178    28.5732    9843(99)          9770.7422         9282.0039       
  1179    28.5932    9670(98)          9814.9424         9276.0039       
  1180    28.6132    9901(100)          9867.3438         9270.0029      
  1181    28.6332    9976(100)          9928.6719         9263.0029      
  1182    28.6532    9841(99)         10004.1729         9258.0010       
  1183    28.6732    10168(101)         10092.9600         9251.0010     
  1184    28.6932    10099(100)         10203.4932         9246.0000     
  1185    28.7132    10520(103)         10338.3477         9238.9980     
  1186    28.7332    10702(103)         10511.0225         9233.9980     
  1187    28.7532    10818(104)         10730.7930         9226.9971     
  1188    28.7732    11008(105)         11018.2568         9220.9951     
  1189    28.7932    11454(107)         11394.2188         9214.9951     
  1190    28.8132    12032(110)         11882.2959         9207.9941     
  1191    28.8332    12542(112)         12509.6396         9201.9922     
  1192    28.8532    13282(115)         13297.3887         9195.9922     
  1193    28.8732    14586(121)         14269.3594         9189.9902     
  1194    28.8932    16077(127)         15407.7539         9182.9893     
  1195    28.9132    17273(131)         16700.3848         9177.9883     
  1196    28.9332    18773(137)         18076.2480         9170.9873     
  1197    28.9532    19914(141)         19405.8887         9164.9863     
  1198    28.9732    21481(147)         20485.2305         9158.9844     
  1199    28.9932    21859(148)         21098.6484         9152.9844     
  1200    29.0132    22314(149)         21135.1797         9145.9824     
  1201    29.0332    21126(145)         20662.5938         9140.9814     
  1202    29.0532    19897(141)         19846.5039         9133.9795     
  1203    29.0732    18886(137)         18840.2656         9127.9775     
  1204    29.0932    17493(132)         17722.8555         9120.9775     
  1205    29.1132    16236(127)         16544.1094         9115.9756     
  1206    29.1332    14898(122)         15360.0029         9108.9746     
  1207    29.1532    14230(119)         14245.4980         9101.9727     
  1208    29.1732    13401(116)         13259.4424         9095.9717     
  1209    29.1932    12324(111)         12428.3223         9089.9697     
  1210    29.2132    11579(108)         11753.2832         9083.9688     
  1211    29.2332    11084(105)         11219.2344         9076.9678     
  1212    29.2532    10821(104)         10807.0459         9070.9658     
  1213    29.2732    10587(103)         10491.8750         9063.9639     
  1214    29.2932    10177(101)         10255.0059         9058.9629     
  1215    29.3132    10082(100)         10073.6113         9051.9609     
  1216    29.3332    9919(100)          9935.3086         9045.9590      
  1217    29.3532    9964(100)          9827.7314         9038.9580      
  1218    29.3732    9651(98)          9741.1221         9032.9561       
  1219    29.3932    9679(98)          9669.7363         9026.9541       
  1220    29.4132    9591(98)          9609.2773         9020.9541       
  1221    29.4332    9468(97)          9555.8379         9013.9521       
  1222    29.4532    9656(98)          9508.4668         9006.9502       
  1223    29.4732    9441(97)          9466.8652         9000.9482       
  1224    29.4932    9407(97)          9428.1514         8993.9473       
  1225    29.5132    9632(98)          9393.7129         8987.9453       
  1226    29.5332    9568(98)          9361.1016         8980.9434       
  1227    29.5532    9459(97)          9332.9873         8975.9414       
  1228    29.5732    9151(96)          9305.1035         8968.9404       
  1229    29.5932    9336(97)          9280.2324         8962.9385       
  1230    29.6132    9160(96)          9256.1816         8955.9365       
  1231    29.6332    9155(96)          9234.7881         8949.9346       
  1232    29.6532    9058(95)          9213.9053         8942.9326       
  1233    29.6732    9130(96)          9195.4033         8936.9316       
  1234    29.6932    9023(95)          9177.1631         8929.9297       
  1235    29.7132    9142(96)          9161.0791         8923.9277       
  1236    29.7332    9194(96)          9145.0625         8916.9258       
  1237    29.7532    9181(96)          9130.0312         8909.9238       
  1238    29.7732    9021(95)          9116.9170         8903.9219       
  1239    29.7932    8969(95)          9103.6631         8896.9209       
  1240    29.8132    9157(96)          9092.2188         8890.9189       
  1241    29.8332    9086(95)          9080.5469         8883.9170       
  1242    29.8532    8896(94)          9070.6182         8877.9150       
  1243    29.8732    9143(96)          9060.4141         8870.9131       
  1244    29.8932    8894(94)          9051.9258         8864.9111       
  1245    29.9132    8738(93)          9043.1533         8857.9092       
  1246    29.9332    9070(95)          9036.1104         8851.9082       
  1247    29.9532    8896(94)          9028.8193         8844.9062       
  1248    29.9732    8865(94)          9023.3232         8838.9043       
  1249    29.9932    8931(95)          9017.6768         8831.9023       
  1250    30.0132    8967(95)          9013.9600         8825.9004       
  1251    30.0332    8834(94)          9010.2734         8818.8984       
  1252    30.0532    9029(95)          9007.7480         8811.8955       
  1253    30.0732    8931(95)          9006.5488         8804.8936       
  1254    30.0932    8741(93)          9006.8789         8797.8916       
  1255    30.1132    8775(94)          9009.9873         8791.8896       
  1256    30.1332    8752(94)          9014.1777         8784.8887       
  1257    30.1532    8939(95)          9021.8223         8778.8867       
  1258    30.1732    8977(95)          9031.3877         8771.8848       
  1259    30.1932    9093(95)          9044.4805         8764.8828       
  1260    30.2132    8807(94)          9061.9385         8757.8809       
  1261    30.2332    9076(95)          9085.9600         8751.8789       
  1262    30.2532    9179(96)          9116.3232         8744.8770       
  1263    30.2732    9027(95)          9157.6611         8738.8750       
  1264    30.2932    9159(96)          9211.7871         8731.8730       
  1265    30.3132    9273(96)          9285.9141         8725.8711       
  1266    30.3332    9356(97)          9384.7119         8718.8701       
  1267    30.3532    9365(97)          9516.9707         8711.8682       
  1268    30.3732    9784(99)          9690.9121         8704.8662       
  1269    30.3932    9926(100)          9913.9209         8697.8643      
  1270    30.4132    10168(101)         10192.0830         8691.8623     
  1271    30.4332    10212(101)         10524.1943         8684.8604     
  1272    30.4532    10758(104)         10905.9336         8678.8584     
  1273    30.4732    11168(106)         11315.5586         8670.8564     
  1274    30.4932    11443(107)         11718.3311         8664.8545     
  1275    30.5132    11908(109)         12046.7148         8657.8525     
  1276    30.5332    12383(111)         12222.6445         8651.8516     
  1277    30.5532    11862(109)         12185.6660         8644.8496     
  1278    30.5732    11837(109)         11940.7363         8637.8477     
  1279    30.5932    11731(108)         11551.9453         8630.8457     
  1280    30.6132    11264(106)         11102.3701         8624.8438     
  1281    30.6332    10873(104)         10655.1699         8617.8428     
  1282    30.6532    10539(103)         10251.5195         8611.8408     
  1283    30.6732    9913(100)          9906.8096         8603.8389      
  1284    30.6932    9697(98)          9628.7002         8596.8379       
  1285    30.7132    9567(98)          9388.9189         8590.8359       
  1286    30.7332    9090(95)          9226.6982         8583.8340       
  1287    30.7532    9265(96)          9108.1172         8576.8320       
  1288    30.7732    9211(96)          9023.6953         8569.8301       
  1289    30.7932    9261(96)          8966.5117         8563.8281       
  1290    30.8132    9056(95)          8920.5020         8556.8262       
  1291    30.8332    8982(95)          8899.4014         8549.8262       
  1292    30.8532    8728(93)          8892.5869         8542.8242       
  1293    30.8732    8908(94)          8899.9873         8536.8223       
  1294    30.8932    8867(94)          8918.1182         8528.8203       
  1295    30.9132    9062(95)          8950.5244         8522.8184       
  1296    30.9332    8760(94)          8993.1816         8515.8174       
  1297    30.9532    8828(94)          9045.7227         8509.8164       
  1298    30.9732    8723(93)          9100.2256         8501.8145       
  1299    30.9932    8833(94)          9150.8125         8494.8125       
  1300    31.0132    9028(95)          9184.4434         8488.8115       
  1301    31.0332    8737(93)          9184.7764         8480.8096       
  1302    31.0532    8350(91)          9149.8662         8474.8086       
  1303    31.0732    8587(93)          9082.6338         8467.8066       
  1304    31.0932    8685(93)          8997.5439         8460.8057       
  1305    31.1132    8576(93)          8907.8779         8453.8047       
  1306    31.1332    8631(93)          8823.7881         8447.8027       
  1307    31.1532    8404(92)          8747.1914         8439.8008       
  1308    31.1732    8640(93)          8683.9814         8433.7998       
  1309    31.1932    8334(91)          8631.1357         8426.7988       
  1310    31.2132    8593(93)          8588.4941         8419.7969       
  1311    31.2332    8436(92)          8554.9854         8412.7959       
  1312    31.2532    8424(92)          8524.5771         8402.7949       
  1313    31.2732    8430(92)          8498.2080         8391.7930       
  1314    31.2932    8237(91)          8475.5000         8380.7930       
  1315    31.3132    8346(91)          8456.3896         8370.7910       
  1316    31.3332    8340(91)          8437.1055         8358.7891       
  1317    31.3532    8546(92)          8421.1104         8348.7891       
  1318    31.3732    8670(93)          8406.0322         8338.7871       
  1319    31.3932    8352(91)          8389.6309         8326.7871       
  1320    31.4132    8323(91)          8375.7393         8316.7852       
  1321    31.4332    8131(90)          8361.2539         8305.7842       
  1322    31.4532    8334(91)          8347.0986         8294.7832       
  1323    31.4732    8319(91)          8334.2236         8284.7822       
  1324    31.4932    8342(91)          8320.5928         8273.7812       
  1325    31.5132    8199(91)          8307.1777         8262.7803       
  1326    31.5332    8155(90)          8294.9570         8252.7793       
  1327    31.5532    8199(91)          8281.9121         8241.7783       
  1328    31.5732    8332(91)          8269.0283         8230.7773       
  1329    31.5932    8305(91)          8256.2900         8219.7764       
  1330    31.6132    8166(90)          8243.6855         8208.7764       
  1331    31.6332    8169(90)          8232.1973         8198.7744       
  1332    31.6532    7982(89)          8219.8154         8187.7744       
  1333    31.6732    8346(91)          8207.5225         8176.7734       
  1334    31.6932    8392(92)          8195.3105         8165.7729       
  1335    31.7132    8191(91)          8184.1699         8155.7720       
  1336    31.7332    8234(91)          8172.0996         8144.7715       
  1337    31.7532    8298(91)          8160.0972         8133.7710       
  1338    31.7732    8192(91)          8149.1597         8123.7700       
  1339    31.7932    8201(91)          8136.2852         8111.7695       
  1340    31.8132    7968(89)          8125.4688         8101.7690       
  1341    31.8332    8182(90)          8112.7075         8089.7686       
  1342    31.8532    8071(90)          8101.9966         8079.7676       
  1343    31.8732    7924(89)          8091.3340         8069.7676       
  1344    31.8932    8049(90)          8078.7144         8057.7671       
  1345    31.9132    8223(91)          8068.1362         8047.7666       
  1346    31.9332    8089(90)          8056.5962         8036.7661       
  1347    31.9532    7954(89)          8045.0923         8025.7661       
  1348    31.9732    8181(90)          8033.6226         8014.7656       
  1349    31.9932    7974(89)          8023.1846         8004.7651       
  1350    32.0132    7762(88)          8011.7783         7993.7646       
  1351    32.0332    8105(90)          8000.4019         7982.7646       
  1352    32.0532    7889(89)          7990.0537         7972.7642       
  1353    32.0732    7932(89)          7977.7349         7960.7642       
  1354    32.0932    8014(90)          7967.4434         7950.7642       
  1355    32.1132    7859(89)          7955.1694         7938.7642       
  1356    32.1332    7982(89)          7943.9321         7927.7637       
  1357    32.1532    7791(88)          7932.7231         7916.7637       
  1358    32.1732    7996(89)          7920.5420         7904.7637       
  1359    32.1932    7756(88)          7908.3892         7892.7637       
  1360    32.2132    8106(90)          7896.2651         7880.7637       
  1361    32.2332    7792(88)          7876.5044         7869.7637       
  1362    32.2532    7806(88)          7863.6440         7856.7637       
  1363    32.2732    7829(88)          7852.8105         7845.7637       
  1364    32.2932    7877(89)          7841.0073         7833.7642       
  1365    32.3132    7988(89)          7829.2378         7821.7642       
  1366    32.3332    7820(88)          7818.5068         7810.7646       
  1367    32.3532    7649(87)          7805.8188         7797.7646       
  1368    32.3732    7807(88)          7795.1812         7786.7646       
  1369    32.3932    7858(89)          7783.6025         7774.7651       
  1370    32.4132    7959(89)          7772.0928         7762.7651       
  1371    32.4332    7804(88)          7760.6650         7750.7661       
  1372    32.4532    7895(89)          7750.3340         7739.7666       
  1373    32.4732    7642(87)          7738.1172         7726.7666       
  1374    32.4932    7756(88)          7728.0381         7715.7671       
  1375    32.5132    7786(88)          7718.1230         7704.7676       
  1376    32.5332    7679(88)          7706.4062         7691.7681       
  1377    32.5532    7746(88)          7696.9316         7680.7686       
  1378    32.5732    7877(89)          7686.7622         7668.7690       
  1379    32.5932    7757(88)          7676.9873         7656.7700       
  1380    32.6132    7544(87)          7667.7393         7644.7700       
  1381    32.6332    7710(88)          7660.2192         7633.7710       
  1382    32.6532    7690(88)          7651.7119         7620.7715       
  1383    32.6732    7636(87)          7646.6094         7609.7725       
  1384    32.6932    7425(86)          7642.4077         7597.7729       
  1385    32.7132    7572(87)          7640.6831         7585.7739       
  1386    32.7332    7611(87)          7641.5576         7574.7744       
  1387    32.7532    7605(87)          7645.5337         7561.7754       
  1388    32.7732    7864(89)          7655.4351         7550.7759       
  1389    32.7932    7686(88)          7668.2471         7538.7773       
  1390    32.8132    7568(87)          7684.3579         7526.7783       
  1391    32.8332    7545(87)          7705.6567         7513.7788       
  1392    32.8532    7659(88)          7723.0386         7502.7798       
  1393    32.8732    7711(88)          7732.8657         7490.7808       
  1394    32.8932    7543(87)          7729.4487         7477.7817       
  1395    32.9132    7505(87)          7711.5181         7465.7827       
  1396    32.9332    7634(87)          7678.6436         7452.7837       
  1397    32.9532    7622(87)          7638.0923         7440.7852       
  1398    32.9732    7553(87)          7593.5830         7427.7861       
  1399    32.9932    7408(86)          7551.2515         7415.7876       
  1400    33.0132    7565(87)          7512.4087         7403.7886       
  1401    33.0332    7464(86)          7477.0254         7390.7896       
  1402    33.0532    7558(87)          7447.2114         7378.7905       
  1403    33.0732    7239(85)          7421.5571         7366.7920       
  1404    33.0932    7315(86)          7399.4028         7354.7930       
  1405    33.1132    7470(86)          7379.0137         7341.7944       
  1406    33.1332    7459(86)          7361.7007         7329.7959       
  1407    33.1532    7628(87)          7345.8877         7317.7974       
  1408    33.1732    7363(86)          7330.1284         7304.7988       
  1409    33.1932    7453(86)          7316.0977         7292.8003       
  1410    33.2132    7443(86)          7301.5693         7279.8018       
  1411    33.2332    7220(85)          7288.3911         7267.8027       
  1412    33.2532    7301(85)          7275.4629         7255.8042       
  1413    33.2732    7180(85)          7261.7202         7242.8057       
  1414    33.2932    7561(87)          7250.1211         7231.8076       
  1415    33.3132    7113(84)          7236.6377         7218.8091       
  1416    33.3332    7539(87)          7224.2524         7206.8105       
  1417    33.3532    7305(85)          7210.9526         7193.8120       
  1418    33.3732    7278(85)          7198.7310         7181.8140       
  1419    33.3932    7280(85)          7186.5801         7169.8154       
  1420    33.4132    7251(85)          7173.4966         7156.8169       
  1421    33.4332    7530(87)          7161.4766         7144.8188       
  1422    33.4532    7258(85)          7148.5166         7131.8203       
  1423    33.4732    7250(85)          7136.6152         7119.8218       
  1424    33.4932    7141(85)          7124.7710         7107.8237       
  1425    33.5132    7332(86)          7112.9829         7095.8252       
  1426    33.5332    7282(85)          7101.2505         7083.8271       
  1427    33.5532    7185(85)          7088.5732         7070.8286       
  1428    33.5732    6913(83)          7076.9531         7058.8311       
  1429    33.5932    7116(84)          7065.3892         7046.8325       
  1430    33.6132    7183(85)          7052.8848         7033.8345       
  1431    33.6332    7176(85)          7041.4409         7021.8359       
  1432    33.6532    7213(85)          7034.9502         7013.8384       
  1433    33.6732    7050(84)          7028.6602         7006.8398       
  1434    33.6932    7147(85)          7022.4434         6999.8418       
  1435    33.7132    7145(85)          7015.3047         6991.8438       
  1436    33.7332    6827(83)          7010.2505         6985.8457       
  1437    33.7532    7002(84)          7004.2871         6978.8472       
  1438    33.7732    7197(85)          6998.4243         6971.8496       
  1439    33.7932    7254(85)          6992.6709         6964.8516       
  1440    33.8132    7206(85)          6987.0376         6957.8530       
  1441    33.8332    6983(84)          6981.5396         6950.8555       
  1442    33.8532    7110(84)          6976.1914         6943.8574       
  1443    33.8732    7020(84)          6971.0127         6936.8594       
  1444    33.8932    7058(84)          6966.0244         6929.8613       
  1445    33.9132    7070(84)          6961.2554         6922.8638       
  1446    33.9332    7082(84)          6956.7373         6915.8652       
  1447    33.9532    7139(84)          6952.5112         6908.8677       
  1448    33.9732    7102(84)          6949.6255         6902.8696       
  1449    33.9932    7122(84)          6945.1411         6894.8721       
  1450    34.0132    7238(85)          6942.1294         6887.8735       
  1451    34.0332    7086(84)          6940.6821         6881.8760       
  1452    34.0532    6991(84)          6937.9053         6873.8784       
  1453    34.0732    7044(84)          6936.9302         6866.8799       
  1454    34.0932    7052(84)          6953.4082         6860.8823       
  1455    34.1132    6796(82)          6953.9253         6852.8843       
  1456    34.1332    6989(84)          6957.8496         6846.8867       
  1457    34.1532    6851(83)          6962.4951         6839.8892       
  1458    34.1732    6946(83)          6968.2930         6831.8906       
  1459    34.1932    7021(84)          6978.8701         6825.8931       
  1460    34.2132    6996(84)          6992.1494         6818.8955       
  1461    34.2332    6964(83)          7010.5254         6811.8975       
  1462    34.2532    6972(83)          7036.0054         6804.8994       
  1463    34.2732    7314(86)          7071.3633         6797.9019       
  1464    34.2932    7131(84)          7120.1646         6790.9038       
  1465    34.3132    7187(85)          7186.6118         6783.9062       
  1466    34.3332    7271(85)          7276.1401         6777.9087       
  1467    34.3532    7262(85)          7389.7744         6769.9106       
  1468    34.3732    7543(87)          7533.2695         6762.9126       
  1469    34.3932    7753(88)          7706.9404         6756.9150       
  1470    34.4132    8068(90)          7904.1084         6748.9175       
  1471    34.4332    8034(90)          8118.0234         6742.9194       
  1472    34.4532    8253(91)          8323.8350         6735.9219       
  1473    34.4732    8335(91)          8486.9199         6728.9238       
  1474    34.4932    8671(93)          8564.8027         6721.9263       
  1475    34.5132    8542(92)          8529.9746         6714.9282       
  1476    34.5332    8512(92)          8389.4805         6708.9307       
  1477    34.5532    8252(91)          8177.4668         6700.9331       
  1478    34.5732    8193(91)          7939.1777         6693.9346       
  1479    34.5932    7669(88)          7708.1357         6687.9370       
  1480    34.6132    7545(87)          7500.2739         6680.9395       
  1481    34.6332    7304(85)          7324.7544         6673.9419       
  1482    34.6532    7141(85)          7182.9800         6666.9434       
  1483    34.6732    7153(85)          7072.3564         6659.9458       
  1484    34.6932    6991(84)          6988.1777         6652.9482       
  1485    34.7132    7081(84)          6925.0615         6645.9507       
  1486    34.7332    6914(83)          6877.8613         6638.9526       
  1487    34.7532    6922(83)          6843.2466         6632.9546       
  1488    34.7732    7088(84)          6814.8311         6624.9570       
  1489    34.7932    6736(82)          6794.1367         6618.9590       
  1490    34.8132    6923(83)          6776.4395         6611.9609       
  1491    34.8332    6869(83)          6761.5854         6604.9634       
  1492    34.8532    6958(83)          6748.8262         6597.9658       
  1493    34.8732    6956(83)          6737.6870         6590.9678       
  1494    34.8932    6649(82)          6728.8799         6584.9697       
  1495    34.9132    6927(83)          6720.2329         6577.9722       
  1496    34.9332    6808(83)          6711.6558         6569.9741       
  1497    34.9532    6697(82)          6706.1157         6563.9761       
  1498    34.9732    6577(81)          6700.6265         6556.9780       
  1499    34.9932    7006(84)          6697.2485         6550.9805       
  1500    35.0132    6560(81)          6693.0977         6542.9824       
  1501    35.0332    6733(82)          6691.3696         6535.9844       
  1502    35.0532    6706(82)          6692.3647         6529.9863       
  1503    35.0732    6525(81)          6702.0156         6522.9888       
  1504    35.0932    6597(81)          6708.1309         6516.9907       
  1505    35.1132    6693(82)          6715.7920         6508.9927       
  1506    35.1332    6742(82)          6728.8911         6501.9946       
  1507    35.1532    6545(81)          6748.3555         6495.9966       
  1508    35.1732    6776(82)          6773.0161         6488.9985       
  1509    35.1932    6665(82)          6804.4326         6482.0005       
  1510    35.2132    6930(83)          6842.6465         6475.0024       
  1511    35.2332    6827(83)          6886.8486         6468.0044       
  1512    35.2532    6962(83)          6935.7061         6462.0063       
  1513    35.2732    6799(82)          6982.5732         6455.0083       
  1514    35.2932    7126(84)          7021.2578         6448.0098       
  1515    35.3132    6702(82)          7044.0703         6441.0122       
  1516    35.3332    6786(82)          7047.4170         6434.0137       
  1517    35.3532    6936(83)          7035.9019         6428.0161       
  1518    35.3732    6813(83)          7016.1348         6421.0176       
  1519    35.3932    6877(83)          6998.1123         6414.0190       
  1520    35.4132    6891(83)          6989.0513         6407.0215       
  1521    35.4332    6813(83)          6993.0898         6400.0229       
  1522    35.4532    6944(83)          7015.3604         6394.0244       
  1523    35.4732    7130(84)          7057.7661         6387.0269       
  1524    35.4932    7222(85)          7125.3486         6379.0283       
  1525    35.5132    7118(84)          7228.1875         6373.0298       
  1526    35.5332    7549(87)          7372.9692         6366.0317       
  1527    35.5532    7544(87)          7573.9268         6360.0332       
  1528    35.5732    7747(88)          7843.1709         6353.0352       
  1529    35.5932    8077(90)          8194.7070         6345.0366       
  1530    35.6132    8679(93)          8643.0137         6339.0386       
  1531    35.6332    9212(96)          9190.6582         6332.0400       
  1532    35.6532    9810(99)          9834.6680         6326.0415       
  1533    35.6732    10418(102)         10550.0664         6319.0430     
  1534    35.6932    10858(104)         11284.7207         6312.0444     
  1535    35.7132    11722(108)         11941.4922         6305.0459     
  1536    35.7332    12471(112)         12382.7168         6298.0474     
  1537    35.7532    12715(113)         12478.9824         6292.0488     
  1538    35.7732    12492(112)         12187.2920         6285.0503     
  1539    35.7932    11880(109)         11589.1973         6278.0518     
  1540    35.8132    11083(105)         10830.0078         6272.0532     
  1541    35.8332    10528(103)         10037.8525         6264.0547     
  1542    35.8532    9883(99)          9302.2920         6258.0562       
  1543    35.8732    8768(94)          8664.1846         6251.0576       
  1544    35.8932    8282(91)          8139.8667         6244.0591       
  1545    35.9132    7888(89)          7727.6025         6238.0601       
  1546    35.9332    7560(87)          7412.8462         6231.0615       
  1547    35.9532    7320(86)          7180.4214         6225.0625       
  1548    35.9732    7173(85)          7009.6172         6217.0640       
  1549    35.9932    7065(84)          6887.6436         6210.0649       
  1550    36.0132    6827(83)          6801.7446         6204.0664       
  1551    36.0332    6826(83)          6740.3223         6197.0679       
  1552    36.0532    6550(81)          6698.4888         6191.0684       
  1553    36.0732    6790(82)          6669.3481         6184.0698       
  1554    36.0932    6550(81)          6650.2690         6177.0713       
  1555    36.1132    6554(81)          6639.0776         6171.0718       
  1556    36.1332    6512(81)          6629.3091         6163.0732       
  1557    36.1532    6618(81)          6620.7412         6156.0737       
  1558    36.1732    6295(79)          6602.5508         6150.0752       
  1559    36.1932    6501(81)          6580.0938         6143.0757       
  1560    36.2132    6331(80)          6551.4878         6137.0771       
  1561    36.2332    6295(79)          6518.0200         6130.0776       
  1562    36.2532    6137(78)          6484.4072         6123.0791       
  1563    36.2732    6224(79)          6454.3521         6117.0796       
  1564    36.2932    6245(79)          6426.3950         6109.0806       
  1565    36.3132    6250(79)          6405.2817         6103.0815       
  1566    36.3332    6381(80)          6388.3125         6096.0820       
  1567    36.3532    6132(78)          6376.5435         6089.0830       
  1568    36.3732    6385(80)          6370.9189         6083.0835       
  1569    36.3932    6444(80)          6369.4072         6076.0845       
  1570    36.4132    6575(81)          6374.1519         6070.0854       
  1571    36.4332    6389(80)          6383.6230         6063.0859       
  1572    36.4532    6437(80)          6399.8032         6056.0864       
  1573    36.4732    6573(81)          6424.4180         6049.0869       
  1574    36.4932    6644(82)          6460.1914         6042.0879       
  1575    36.5132    6609(81)          6512.3589         6036.0884       
  1576    36.5332    6648(82)          6583.7192         6029.0894       
  1577    36.5532    6651(82)          6682.0503         6022.0898       
  1578    36.5732    6913(83)          6815.6353         6016.0903       
  1579    36.5932    6865(83)          6989.4834         6009.0908       
  1580    36.6132    7169(85)          7211.1055         6003.0913       
  1581    36.6332    7373(86)          7480.8169         5996.0918       
  1582    36.6532    7673(88)          7796.3682         5989.0923       
  1583    36.6732    8024(90)          8145.0605         5982.0918       
  1584    36.6932    8153(90)          8498.5859         5975.0923       
  1585    36.7132    8386(92)          8807.6543         5969.0928       
  1586    36.7332    8642(93)          9001.7842         5962.0933       
  1587    36.7532    8695(93)          9021.6055         5955.0938       
  1588    36.7732    8405(92)          8855.3242         5949.0942       
  1589    36.7932    8425(92)          8545.9688         5942.0938       
  1590    36.8132    8018(90)          8165.8525         5935.0942       
  1591    36.8332    7498(87)          7777.8545         5929.0947       
  1592    36.8532    7245(85)          7419.3535         5922.0942       
  1593    36.8732    7115(84)          7112.1646         5916.0947       
  1594    36.8932    6831(83)          6860.9165         5909.0952       
  1595    36.9132    6635(81)          6664.9043         5902.0947       
  1596    36.9332    6725(82)          6517.8965         5895.0952       
  1597    36.9532    6390(80)          6411.4780         5888.0952       
  1598    36.9732    6230(79)          6337.8667         5882.0952       
  1599    36.9932    6382(80)          6286.0288         5875.0957       
  1600    37.0132    6263(79)          6251.4463         5868.0952       
  1601    37.0332    6299(79)          6227.5874         5862.0952       
  1602    37.0532    6107(78)          6206.1934         5855.0952       
  1603    37.0732    6178(79)          6183.9023         5849.0947       
  1604    37.0932    6257(79)          6155.7148         5842.0952       
  1605    37.1132    6177(79)          6122.8364         5835.0947       
  1606    37.1332    6069(78)          6088.6133         5829.0947       
  1607    37.1532    5975(77)          6053.6479         5822.0947       
  1608    37.1732    6057(78)          6021.7607         5816.0942       
  1609    37.1932    5977(77)          5991.8994         5809.0942       
  1610    37.2132    5782(76)          5965.3823         5802.0938       
  1611    37.2332    5899(77)          5943.1182         5796.0938       
  1612    37.2532    5891(77)          5921.7930         5788.0938       
  1613    37.2732    5970(77)          5904.9800         5782.0933       
  1614    37.2932    5828(76)          5889.2319         5775.0928       
  1615    37.3132    5817(76)          5875.1416         5768.0923       
  1616    37.3332    5878(77)          5863.3716         5762.0918       
  1617    37.3532    5801(76)          5851.6631         5755.0918       
  1618    37.3732    5823(76)          5843.0283         5749.0918       
  1619    37.3932    5764(76)          5834.9727         5744.0913       
  1620    37.4132    5777(76)          5828.5898         5740.0908       
  1621    37.4332    5756(76)          5807.8433         5736.0903       
  1622    37.4532    5752(76)          5802.0771         5731.0898       
  1623    37.4732    5732(76)          5797.9561         5727.0889       
  1624    37.4932    5827(76)          5794.5479         5723.0884       
  1625    37.5132    5778(76)          5790.9702         5718.0879       
  1626    37.5332    5734(76)          5789.4180         5714.0874       
  1627    37.5532    5701(76)          5789.1919         5710.0869       
  1628    37.5732    5739(76)          5789.7383         5705.0864       
  1629    37.5932    5909(77)          5793.6675         5701.0859       
  1630    37.6132    5883(77)          5800.7568         5697.0854       
  1631    37.6332    6090(78)          5810.9106         5692.0845       
  1632    37.6532    5898(77)          5827.0654         5688.0840       
  1633    37.6732    5912(77)          5849.0479         5684.0835       
  1634    37.6932    5874(77)          5876.3809         5679.0830       
  1635    37.7132    5960(77)          5911.0264         5675.0820       
  1636    37.7332    6066(78)          5951.0264         5671.0815       
  1637    37.7532    6111(78)          5992.8110         5666.0811       
  1638    37.7732    5950(77)          6033.3491         5662.0801       
  1639    37.7932    6021(78)          6063.7495         5658.0796       
  1640    37.8132    5962(77)          6074.0981         5653.0786       
  1641    37.8332    5869(77)          6061.1841         5649.0776       
  1642    37.8532    5955(77)          6025.9087         5645.0771       
  1643    37.8732    5940(77)          5976.2603         5640.0767       
  1644    37.8932    5906(77)          5921.8403         5635.0757       
  1645    37.9132    5973(77)          5870.2480         5631.0752       
  1646    37.9332    5838(76)          5824.2954         5627.0737       
  1647    37.9532    5874(77)          5784.7090         5622.0732       
  1648    37.9732    5979(77)          5753.9668         5618.0723       
  1649    37.9932    5735(76)          5730.5776         5614.0718       
  1650    38.0132    5773(76)          5712.8569         5609.0703       
  1651    38.0332    5655(75)          5701.9287         5605.0698       
  1652    38.0532    5579(75)          5695.9390         5601.0688       
  1653    38.0732    5770(76)          5693.1118         5596.0684       
  1654    38.0932    5617(75)          5694.7178         5592.0669       
  1655    38.1132    5771(76)          5698.9585         5588.0664       
  1656    38.1332    5705(76)          5703.7534         5583.0654       
  1657    38.1532    5505(74)          5709.4688         5579.0645       
  1658    38.1732    5544(74)          5712.7808         5575.0635       
  1659    38.1932    5719(76)          5710.1621         5570.0625       
  1660    38.2132    5667(75)          5702.1499         5566.0620       
  1661    38.2332    5728(76)          5688.3442         5562.0610       
  1662    38.2532    5584(75)          5669.9346         5557.0596       
  1663    38.2732    5855(77)          5651.6187         5553.0591       
  1664    38.2932    5562(75)          5633.5913         5549.0581       
  1665    38.3132    5536(74)          5616.1255         5544.0566       
  1666    38.3332    5613(75)          5602.6465         5541.0562       
  1667    38.3532    5538(74)          5593.2129         5540.0552       
  1668    38.3732    5593(75)          5584.6646         5538.0537       
  1669    38.3932    5535(74)          5577.7305         5536.0532       
  1670    38.4132    5561(75)          5572.0981         5534.0522       
  1671    38.4332    5594(75)          5560.0942         5532.0513       
  1672    38.4532    5661(75)          5556.4082         5530.0498       
  1673    38.4732    5690(75)          5553.2886         5528.0493       
  1674    38.4932    5573(75)          5550.5962         5526.0483       
  1675    38.5132    5637(75)          5548.2378         5524.0469       
  1676    38.5332    5432(74)          5546.1562         5522.0459       
  1677    38.5532    5727(76)          5544.3198         5520.0454       
  1678    38.5732    5512(74)          5542.7153         5518.0444       
  1679    38.5932    5563(75)          5541.3457         5516.0430       
  1680    38.6132    5396(73)          5540.2261         5514.0420       
  1681    38.6332    5621(75)          5539.3809         5512.0415       
  1682    38.6532    5712(76)          5538.8442         5510.0400       
  1683    38.6732    5687(75)          5538.6641         5508.0391       
  1684    38.6932    5566(75)          5538.9028         5506.0381       
  1685    38.7132    5599(75)          5539.6470         5504.0376       
  1686    38.7332    5760(76)          5540.0200         5501.0361       
  1687    38.7532    5693(75)          5541.8711         5499.0352       
  1688    38.7732    5541(74)          5545.1543         5497.0342       
  1689    38.7932    5369(73)          5549.9316         5495.0332       
  1690    38.8132    5619(75)          5556.7808         5493.0327       
  1691    38.8332    5632(75)          5566.4746         5491.0312       
  1692    38.8532    5546(74)          5579.9790         5489.0303       
  1693    38.8732    5653(75)          5598.3940         5487.0293       
  1694    38.8932    5608(75)          5622.8281         5485.0288       
  1695    38.9132    5665(75)          5654.2446         5483.0278       
  1696    38.9332    5665(75)          5693.1973         5481.0264       
  1697    38.9532    5575(75)          5739.5361         5479.0254       
  1698    38.9732    5740(76)          5791.9116         5477.0244       
  1699    38.9932    5756(76)          5847.9727         5476.0239       
  1700    39.0132    5642(75)          5899.3467         5474.0229       
  1701    39.0332    5749(76)          5937.3823         5472.0220       
  1702    39.0532    5633(75)          5951.6943         5470.0210       
  1703    39.0732    5524(74)          5936.8228         5468.0205       
  1704    39.0932    5624(75)          5896.1738         5466.0195       
  1705    39.1132    5548(74)          5839.6055         5464.0186       
  1706    39.1332    5823(76)          5777.6094         5462.0171       
  1707    39.1532    5644(75)          5717.7891         5460.0166       
  1708    39.1732    5671(75)          5664.3818         5458.0156       
  1709    39.1932    5710(76)          5618.2339         5455.0146       
  1710    39.2132    5808(76)          5581.6055         5453.0137       
  1711    39.2332    5526(74)          5552.7939         5451.0132       
  1712    39.2532    5613(75)          5529.6274         5448.0127       
  1713    39.2732    5385(73)          5512.7695         5446.0117       
  1714    39.2932    5442(74)          5499.9497         5444.0107       
  1715    39.3132    5548(74)          5490.0889         5442.0103       
  1716    39.3332    5408(74)          5482.3413         5440.0093       
  1717    39.3532    5349(73)          5477.0884         5439.0083       
  1718    39.3732    5509(74)          5471.9009         5437.0078       
  1719    39.3932    5542(74)          5467.4995         5435.0068       
  1720    39.4132    5381(73)          5463.7139         5433.0059       
  1721    39.4332    5485(74)          5460.4570         5431.0054       
  1722    39.4532    5443(74)          5458.3291         5429.0049       
  1723    39.4732    5375(73)          5456.0962         5427.0039       
  1724    39.4932    5672(75)          5454.4121         5425.0029       
  1725    39.5132    5585(75)          5452.3662         5423.0029       
  1726    39.5332    5427(74)          5451.9395         5421.0020       
  1727    39.5532    5454(74)          5452.1670         5419.0015       
  1728    39.5732    5586(75)          5453.0176         5417.0005       
  1729    39.5932    5502(74)          5454.3740         5415.0000       
  1730    39.6132    5583(75)          5456.9756         5413.9995       
  1731    39.6332    5498(74)          5458.3564         5411.9985       
  1732    39.6532    5520(74)          5457.8721         5408.9985       
  1733    39.6732    5515(74)          5456.9321         5406.9976       
  1734    39.6932    5368(73)          5454.3970         5404.9971       
  1735    39.7132    5435(74)          5450.7373         5402.9966       
  1736    39.7332    5541(74)          5446.7773         5400.9961       
  1737    39.7532    5575(75)          5442.3398         5397.9956       
  1738    39.7732    5482(74)          5439.0796         5394.9951       
  1739    39.7932    5518(74)          5438.4810         5392.9946       
  1740    39.8132    5495(74)          5438.8906         5389.9941       
  1741    39.8332    5400(73)          5441.5288         5386.9937       
  1742    39.8532    5547(74)          5447.4697         5384.9932       
  1743    39.8732    5454(74)          5455.5967         5382.9927       
  1744    39.8932    5260(73)          5464.2407         5379.9922       
  1745    39.9132    5503(74)          5474.0752         5376.9922       
  1746    39.9332    5479(74)          5484.2690         5374.9912       
  1747    39.9532    5200(72)          5490.4985         5371.9912       
  1748    39.9732    5378(73)          5491.2388         5368.9907       
  1749    39.9932    5303(73)          5486.0933         5366.9907       
  1750    40.0132    5489(74)          5473.7773         5363.9902       
  1751    40.0332    5402(73)          5457.5908         5360.9897       
  1752    40.0532    5434(74)          5441.0400         5358.9897       
  1753    40.0732    5249(72)          5424.9492         5356.9893       
  1754    40.0932    5260(73)          5409.3652         5353.9893       
  1755    40.1132    5370(73)          5395.7451         5350.9888       
  1756    40.1332    5423(74)          5385.1670         5348.9883       
  1757    40.1532    5338(73)          5375.4790         5345.9883       
  1758    40.1732    5449(74)          5367.4077         5342.9883       
  1759    40.1932    5567(75)          5361.6362         5340.9878       
  1760    40.2132    5459(74)          5355.8618         5337.9878       
  1761    40.2332    5287(73)          5350.8208         5334.9878       
  1762    40.2532    5341(73)          5348.3062         5333.9878       
  1763    40.2732    5390(73)          5344.1631         5330.9873       
  1764    40.2932    5380(73)          5340.2832         5327.9873       
  1765    40.3132    5361(73)          5336.5908         5324.9873       
  1766    40.3332    5173(72)          5334.0371         5322.9878       
  1767    40.3532    5250(72)          5330.5874         5319.9873       
  1768    40.3732    5507(74)          5327.2227         5316.9873       
  1769    40.3932    5380(73)          5324.9282         5314.9873       
  1770    40.4132    5422(74)          5321.6958         5311.9873       
  1771    40.4332    5459(74)          5319.5195         5309.9873       
  1772    40.4532    5290(73)          5317.3960         5307.9873       
  1773    40.4732    5357(73)          5314.3232         5304.9873       
  1774    40.4932    5240(72)          5311.3013         5301.9873       
  1775    40.5132    5459(74)          5309.3315         5299.9878       
  1776    40.5332    5512(74)          5306.4146         5296.9878       
  1777    40.5532    5397(73)          5303.5557         5293.9878       
  1778    40.5732    5234(72)          5304.7617         5294.9883       
  1779    40.5932    5496(74)          5305.0400         5294.9878       
  1780    40.6132    5401(73)          5307.4058         5296.9883       
  1781    40.6332    5239(72)          5307.8750         5296.9883       
  1782    40.6532    5302(73)          5309.4697         5297.9883       
  1783    40.6732    5306(73)          5311.2148         5298.9888       
  1784    40.6932    5229(72)          5312.1372         5298.9893       
  1785    40.7132    5320(73)          5314.2632         5299.9893       
  1786    40.7332    5314(73)          5316.6167         5300.9897       
  1787    40.7532    5417(74)          5317.2778         5300.9897       
  1788    40.7732    5288(73)          5319.9033         5301.9902       
  1789    40.7932    5403(74)          5322.9932         5302.9902       
  1790    40.8132    5395(73)          5326.2495         5303.9907       
  1791    40.8332    5518(74)          5329.5825         5304.9912       
  1792    40.8532    5245(72)          5332.6523         5304.9912       
  1793    40.8732    5625(75)          5336.0640         5305.9917       
  1794    40.8932    5536(74)          5339.7671         5306.9922       
  1795    40.9132    5327(73)          5343.1689         5306.9927       
  1796    40.9332    5395(73)          5348.7773         5307.9927       
  1797    40.9532    5488(74)          5355.1660         5307.9932       
  1798    40.9732    5353(73)          5365.9131         5309.9937       
  1799    40.9932    5431(74)          5378.6255         5310.9941       
  1800    41.0132    5424(74)          5394.8379         5311.9951       
  1801    41.0332    5447(74)          5414.9292         5312.9951       
  1802    41.0532    5456(74)          5438.9932         5313.9956       
  1803    41.0732    5581(75)          5465.6851         5313.9961       
  1804    41.0932    5537(74)          5495.8213         5314.9966       
  1805    41.1132    5478(74)          5525.0273         5314.9971       
  1806    41.1332    5484(74)          5551.2397         5315.9976       
  1807    41.1532    5622(75)          5569.1128         5317.9980       
  1808    41.1732    5625(75)          5571.0967         5317.9985       
  1809    41.1932    5522(74)          5559.2959         5318.9995       
  1810    41.2132    5346(73)          5536.1562         5320.0000       
  1811    41.2332    5457(74)          5506.1289         5320.0005       
  1812    41.2532    5620(75)          5476.0391         5321.0010       
  1813    41.2732    5601(75)          5447.0337         5321.0015       
  1814    41.2932    5399(73)          5422.7495         5322.0020       
  1815    41.3132    5429(74)          5402.7852         5323.0024       
  1816    41.3332    5515(74)          5387.0815         5324.0034       
  1817    41.3532    5379(73)          5375.1948         5325.0044       
  1818    41.3732    5438(74)          5366.4199         5326.0049       
  1819    41.3932    5322(73)          5359.2388         5326.0054       
  1820    41.4132    5310(73)          5354.9561         5327.0059       
  1821    41.4332    5353(73)          5351.0557         5327.0063       
  1822    41.4532    5349(73)          5353.4424         5328.0073       
  1823    41.4732    5419(74)          5352.3096         5329.0083       
  1824    41.4932    5289(73)          5350.6597         5329.0088       
  1825    41.5132    5407(74)          5351.3525         5331.0093       
  1826    41.5332    5417(74)          5351.2939         5332.0098       
  1827    41.5532    5619(75)          5350.4224         5332.0103       
  1828    41.5732    5520(74)          5350.6968         5333.0117       
  1829    41.5932    5460(74)          5350.0884         5333.0122       
  1830    41.6132    5385(73)          5350.7031         5334.0127       
  1831    41.6332    5296(73)          5351.2827         5335.0137       
  1832    41.6532    5376(73)          5350.9380         5335.0142       
  1833    41.6732    5448(74)          5351.6616         5336.0146       
  1834    41.6932    5538(74)          5352.1689         5337.0161       
  1835    41.7132    5515(74)          5352.4688         5337.0166       
  1836    41.7332    5509(74)          5354.3853         5339.0171       
  1837    41.7532    5459(74)          5354.3535         5339.0181       
  1838    41.7732    5507(74)          5355.3711         5340.0186       
  1839    41.7932    5426(74)          5356.4365         5341.0190       
  1840    41.8132    5416(74)          5356.5488         5341.0200       
  1841    41.8332    5485(74)          5357.7070         5342.0210       
  1842    41.8532    5406(74)          5358.9097         5343.0215       
  1843    41.8732    5329(73)          5359.1587         5343.0225       
  1844    41.8932    5459(74)          5360.4531         5344.0229       
  1845    41.9132    5321(73)          5360.7959         5344.0239       
  1846    41.9332    5197(72)          5362.1875         5345.0244       
  1847    41.9532    5219(72)          5364.6309         5347.0249       
  1848    41.9732    5376(73)          5365.1304         5347.0259       
  1849    41.9932    5361(73)          5366.6895         5348.0264       
  1850    42.0132    5686(75)          5368.3135         5349.0273       
  1851    42.0332    5371(73)          5369.0088         5349.0278       
  1852    42.0532    5417(74)          5370.7842         5350.0288       
  1853    42.0732    5324(73)          5371.9409         5350.0298       
  1854    42.0932    5361(73)          5373.9155         5351.0303       
  1855    42.1132    5514(74)          5376.0044         5352.0312       
  1856    42.1332    5361(73)          5377.2251         5352.0317       
  1857    42.1532    5239(72)          5379.5996         5353.0327       
  1858    42.1732    5573(75)          5382.1519         5354.0332       
  1859    42.1932    5417(74)          5383.9126         5354.0337       
  1860    42.2132    5304(73)          5386.9194         5355.0347       
  1861    42.2332    5447(74)          5389.2231         5355.0352       
  1862    42.2532    5219(72)          5393.8911         5357.0356       
  1863    42.2732    5362(73)          5398.0229         5358.0361       
  1864    42.2932    5320(73)          5401.7607         5358.0366       
  1865    42.3132    5407(74)          5407.3140         5359.0376       
  1866    42.3332    5590(75)          5413.9766         5360.0381       
  1867    42.3532    5456(74)          5421.1489         5360.0391       
  1868    42.3732    5513(74)          5431.3374         5361.0396       
  1869    42.3932    5549(74)          5443.1450         5361.0400       
  1870    42.4132    5597(75)          5459.2144         5362.0410       
  1871    42.4332    5505(74)          5479.1499         5363.0410       
  1872    42.4532    5409(74)          5502.4155         5363.0420       
  1873    42.4732    5565(75)          5531.1841         5364.0425       
  1874    42.4932    5465(74)          5564.1499         5365.0430       
  1875    42.5132    5590(75)          5599.1821         5365.0435       
  1876    42.5332    5471(74)          5635.8643         5366.0439       
  1877    42.5532    5522(74)          5667.9722         5366.0444       
  1878    42.5732    5613(75)          5691.7188         5367.0454       
  1879    42.5932    5499(74)          5698.7593         5366.0454       
  1880    42.6132    5578(75)          5689.2632         5365.0459       
  1881    42.6332    5478(74)          5666.3071         5364.0469       
  1882    42.6532    5525(74)          5635.7778         5363.0469       
  1883    42.6732    5431(74)          5603.3242         5362.0474       
  1884    42.6932    5418(74)          5572.8647         5361.0474       
  1885    42.7132    5545(74)          5546.2646         5359.0483       
  1886    42.7332    5574(75)          5525.2803         5358.0488       
  1887    42.7532    5485(74)          5509.7715         5357.0488       
  1888    42.7732    5554(75)          5499.4600         5356.0493       
  1889    42.7932    5357(73)          5493.7690         5355.0498       
  1890    42.8132    5616(75)          5491.0435         5353.0503       
  1891    42.8332    5496(74)          5492.7500         5352.0503       
  1892    42.8532    5384(73)          5497.6406         5351.0503       
  1893    42.8732    5487(74)          5505.8066         5350.0508       
  1894    42.8932    5440(74)          5517.0752         5349.0513       
  1895    42.9132    5441(74)          5533.5371         5348.0518       
  1896    42.9332    5384(73)          5554.8770         5346.0518       
  1897    42.9532    5612(75)          5585.0005         5345.0518       
  1898    42.9732    5603(75)          5625.4600         5344.0522       
  1899    42.9932    5749(76)          5679.4058         5343.0522       
  1900    43.0132    5776(76)          5750.3960         5342.0522       
  1901    43.0332    5911(77)          5842.0190         5341.0522       
  1902    43.0532    6094(78)          5956.3271         5339.0522       
  1903    43.0732    6104(78)          6097.2202         5338.0527       
  1904    43.0932    6139(78)          6263.3672         5337.0527       
  1905    43.1132    6425(80)          6450.8618         5336.0527       
  1906    43.1332    6614(81)          6649.8887         5335.0527       
  1907    43.1532    6918(83)          6840.6343         5333.0527       
  1908    43.1732    7410(86)          6995.7251         5332.0527       
  1909    43.1932    7342(86)          7079.8105         5331.0527       
  1910    43.2132    7283(85)          7069.4497         5330.0527       
  1911    43.2332    7148(85)          6966.6372         5328.0522       
  1912    43.2532    7000(84)          6801.0723         5327.0522       
  1913    43.2732    6541(81)          6606.2788         5325.0522       
  1914    43.2932    6206(79)          6413.1367         5324.0522       
  1915    43.3132    6260(79)          6238.6055         5323.0522       
  1916    43.3332    6063(78)          6091.3916         5322.0513       
  1917    43.3532    5811(76)          5973.7451         5321.0513       
  1918    43.3732    5727(76)          5883.8530         5320.0513       
  1919    43.3932    5643(75)          5816.7104         5318.0508       
  1920    43.4132    5451(74)          5769.4609         5317.0503       
  1921    43.4332    5657(75)          5735.6201         5316.0503       
  1922    43.4532    5645(75)          5709.0444         5315.0498       
  1923    43.4732    5622(75)          5683.6401         5314.0493       
  1924    43.4932    5350(73)          5654.1567         5312.0488       
  1925    43.5132    5606(75)          5620.6548         5310.0483       
  1926    43.5332    5515(74)          5585.9927         5309.0479       
  1927    43.5532    5496(74)          5551.9414         5308.0474       
  1928    43.5732    5482(74)          5520.7314         5307.0469       
  1929    43.5932    5451(74)          5493.7227         5306.0464       
  1930    43.6132    5512(74)          5470.5586         5304.0459       
  1931    43.6332    5447(74)          5453.4214         5303.0454       
  1932    43.6532    5640(75)          5441.2183         5302.0449       
  1933    43.6732    5351(73)          5431.6846         5299.0439       
  1934    43.6932    5337(73)          5426.4487         5296.0435       
  1935    43.7132    5317(73)          5426.0483         5294.0425       
  1936    43.7332    5388(73)          5427.9106         5291.0420       
  1937    43.7532    5314(73)          5433.2510         5289.0410       
  1938    43.7732    5313(73)          5438.9023         5286.0405       
  1939    43.7932    5247(72)          5445.1060         5284.0396       
  1940    43.8132    5262(73)          5446.5239         5280.0386       
  1941    43.8332    5374(73)          5444.8667         5278.0376       
  1942    43.8532    5323(73)          5435.9697         5275.0366       
  1943    43.8732    5504(74)          5422.6250         5273.0356       
  1944    43.8932    5198(72)          5404.9272         5270.0347       
  1945    43.9132    5207(72)          5387.1260         5268.0337       
  1946    43.9332    5265(73)          5367.8877         5264.0327       
  1947    43.9532    5380(73)          5352.1924         5262.0317       
  1948    43.9732    5181(72)          5337.5366         5259.0308       
  1949    43.9932    5335(73)          5325.9502         5257.0298       
  1950    44.0132    5457(74)          5315.3706         5254.0288       
  1951    44.0332    5234(72)          5307.5767         5252.0278       
  1952    44.0532    5135(72)          5299.2998         5248.0259       
  1953    44.0732    5398(73)          5294.2759         5246.0249       
  1954    44.0932    5397(73)          5289.2744         5243.0239       
  1955    44.1132    5279(73)          5286.1191         5241.0225       
  1956    44.1332    5256(72)          5282.6899         5238.0210       
  1957    44.1532    5404(74)          5279.9277         5235.0200       
  1958    44.1732    5241(72)          5277.8286         5232.0186       
  1959    44.1932    5348(73)          5277.4512         5230.0171       
  1960    44.2132    5398(73)          5276.9185         5227.0156       
  1961    44.2332    5249(72)          5278.4287         5225.0142       
  1962    44.2532    5366(73)          5279.2612         5221.0127       
  1963    44.2732    5571(75)          5283.7925         5219.0112       
  1964    44.2932    5370(73)          5289.4956         5216.0098       
  1965    44.3132    5208(72)          5298.9023         5214.0078       
  1966    44.3332    5328(73)          5310.5239         5211.0063       
  1967    44.3532    5338(73)          5325.0229         5208.0049       
  1968    44.3732    5263(73)          5343.9390         5205.0029       
  1969    44.3932    5362(73)          5367.2383         5203.0015       
  1970    44.4132    5432(74)          5391.9106         5200.0000       
  1971    44.4332    5327(73)          5416.8691         5196.9980       
  1972    44.4532    5178(72)          5438.5669         5193.9961       
  1973    44.4732    5403(74)          5453.2603         5191.9941       
  1974    44.4932    5211(72)          5454.5332         5188.9927       
  1975    44.5132    5285(73)          5441.8047         5185.9907       
  1976    44.5332    5186(72)          5417.4224         5182.9893       
  1977    44.5532    5317(73)          5387.1187         5180.9873       
  1978    44.5732    5373(73)          5354.5527         5178.9854       
  1979    44.5932    5163(72)          5321.1074         5174.9834       
  1980    44.6132    5249(72)          5292.6855         5172.9814       
  1981    44.6332    5229(72)          5268.1528         5170.9790       
  1982    44.6532    5277(73)          5247.6826         5168.9771       
  1983    44.6732    5165(72)          5229.0186         5164.9751       
  1984    44.6932    5223(72)          5215.6646         5162.9731       
  1985    44.7132    5182(72)          5205.0283         5160.9707       
  1986    44.7332    5161(72)          5196.5161         5158.9688       
  1987    44.7532    5344(73)          5187.6045         5154.9663       
  1988    44.7732    5137(72)          5181.8643         5152.9644       
  1989    44.7932    5047(71)          5176.9634         5150.9624       
  1990    44.8132    5069(71)          5171.6582         5147.9600       
  1991    44.8332    5058(71)          5166.7773         5144.9575       
  1992    44.8532    5284(73)          5163.2036         5142.9556       
  1993    44.8732    5253(72)          5159.8555         5140.9531       
  1994    44.8932    5220(72)          5158.0605         5137.9507       
  1995    44.9132    5082(71)          5154.0723         5134.9482       
  1996    44.9332    5223(72)          5151.1958         5132.9458       
  1997    44.9532    5174(72)          5147.4136         5129.9438       
  1998    44.9732    5198(72)          5140.5210         5127.9414       
  1999    44.9932    5268(73)          5136.9824         5124.9385       
  2000    45.0132    5066(71)          5134.5049         5122.9365       
  2001    45.0332    5109(71)          5131.0806         5119.9336       
  2002    45.0532    5073(71)          5128.7061         5117.9312       
  2003    45.0732    5126(72)          5125.3760         5114.9287       
  2004    45.0932    5191(72)          5122.0879         5111.9263       
  2005    45.1132    5209(72)          5119.8389         5109.9238       
  2006    45.1332    5204(72)          5117.6260         5107.9209       
  2007    45.1532    5170(72)          5113.3267         5103.9185       
  2008    45.1732    5224(72)          5111.1855         5101.9160       
  2009    45.1932    5106(71)          5109.0771         5099.9131       
  2010    45.2132    5248(72)          5106.0024         5096.9106       
  2011    45.2332    5064(71)          5102.9609         5093.9077       
  2012    45.2532    5130(72)          5100.5107         5091.9053       
  2013    45.2732    5057(71)          5097.5498         5088.9023       
  2014    45.2932    5229(72)          5095.6260         5086.8999       
  2015    45.3132    5018(71)          5092.7412         5083.8970       
  2016    45.3332    5091(71)          5089.8984         5080.8940       
  2017    45.3532    5156(72)          5088.0991         5078.8911       
  2018    45.3732    5015(71)          5086.3472         5076.8887       
  2019    45.3932    5250(72)          5082.6450         5072.8857       
  2020    45.4132    5091(71)          5080.9995         5070.8828       
  2021    45.4332    5034(71)          5079.4258         5068.8799       
  2022    45.4532    5095(71)          5076.9487         5065.8770       
  2023    45.4732    5119(72)          5074.5996         5062.8740       
  2024    45.4932    5200(72)          5073.4116         5060.8716       
  2025    45.5132    5102(71)          5071.4121         5057.8687       
  2026    45.5332    5190(72)          5070.6221         5055.8657       
  2027    45.5532    4975(71)          5069.0469         5052.8628       
  2028    45.5732    5038(71)          5067.6685         5049.8599       
  2029    45.5932    5071(71)          5067.4282         5047.8564       
  2030    45.6132    5097(71)          5066.9336         5045.8535       
  2031    45.6332    4943(70)          5065.6250         5042.8511       
  2032    45.6532    5088(71)          5064.1138         5039.8481       
  2033    45.6732    5029(71)          5066.0962         5036.8452       
  2034    45.6932    5044(71)          5064.3213         5033.8423       
  2035    45.7132    5013(71)          5063.4790         5031.8389       
  2036    45.7332    5257(73)          5061.5327         5028.8359       
  2037    45.7532    5067(71)          5059.3105         5025.8330       
  2038    45.7732    5060(71)          5057.5674         5023.8301       
  2039    45.7932    5026(71)          5055.1299         5021.8267       
  2040    45.8132    5088(71)          5051.0303         5018.8237       
  2041    45.8332    5221(72)          5048.4927         5017.8208       
  2042    45.8532    5265(73)          5044.8042         5015.8174       
  2043    45.8732    5130(72)          5042.2021         5014.8149       
  2044    45.8932    4997(71)          5039.8306         5013.8120       
  2045    45.9132    5004(71)          5036.7637         5011.8086       
  2046    45.9332    5020(71)          5035.0337         5010.8057       
  2047    45.9532    5116(72)          5033.6499         5009.8027       
  2048    45.9732    5041(71)          5031.5322         5007.7993       
  2049    45.9932    5075(71)          5030.6802         5006.7964       
  2050    46.0132    5061(71)          5030.0591         5005.7935       
  2051    46.0332    4993(71)          5028.6392         5003.7900       
  2052    46.0532    4965(70)          5028.3911         5002.7871       
  2053    46.0732    5075(71)          5028.3110         5001.7842       
  2054    46.0932    5058(71)          5027.3848         4999.7812       
  2055    46.1132    5019(71)          5027.6123         4998.7783       
  2056    46.1332    4960(70)          5027.9985         4997.7749       
  2057    46.1532    5126(72)          5027.5576         4995.7720       
  2058    46.1732    5237(72)          5028.3057         4994.7686       
  2059    46.1932    5225(72)          5029.2681         4993.7661       
  2060    46.2132    5044(71)          5029.4727         4991.7632       
  2061    46.2332    5006(71)          5030.9570         4990.7598       
  2062    46.2532    5058(71)          5031.7656         4988.7568       
  2063    46.2732    5141(72)          5033.9507         4987.7534       
  2064    46.2932    4977(71)          5035.9595         4986.7510       
  2065    46.3132    5176(72)          5038.1187         4984.7480       
  2066    46.3332    5021(71)          5044.5303         4983.7446       
  2067    46.3532    4939(70)          5049.1099         4982.7422       
  2068    46.3732    4956(70)          5053.6099         4980.7388       
  2069    46.3932    5026(71)          5060.2808         4979.7358       
  2070    46.4132    5092(71)          5068.4771         4978.7334       
  2071    46.4332    5223(72)          5077.7075         4976.7300       
  2072    46.4532    5075(71)          5090.6943         4975.7271       
  2073    46.4732    5108(71)          5107.4170         4974.7241       
  2074    46.4932    5244(72)          5128.1431         4972.7212       
  2075    46.5132    5315(73)          5156.4126         4971.7188       
  2076    46.5332    5164(72)          5193.9551         4971.7153       
  2077    46.5532    5253(72)          5239.5293         4969.7124       
  2078    46.5732    5173(72)          5297.7290         4968.7100       
  2079    46.5932    5371(73)          5368.6255         4967.7065       
  2080    46.6132    5554(75)          5455.5522         4965.7041       
  2081    46.6332    5457(74)          5552.0996         4965.7017       
  2082    46.6532    5479(74)          5655.7676         4964.6982       
  2083    46.6732    5778(76)          5760.4268         4963.6958       
  2084    46.6932    5769(76)          5853.1396         4961.6929       
  2085    46.7132    5772(76)          5919.7544         4960.6899       
  2086    46.7332    5666(75)          5943.7280         4959.6875       
  2087    46.7532    5675(75)          5918.0527         4958.6851       
  2088    46.7732    5872(77)          5848.8687         4957.6821       
  2089    46.7932    5586(75)          5751.5732         4956.6792       
  2090    46.8132    5287(73)          5641.8384         4954.6768       
  2091    46.8332    5676(75)          5534.4097         4953.6743       
  2092    46.8532    5362(73)          5437.1250         4953.6719       
  2093    46.8732    5477(74)          5351.9478         4952.6689       
  2094    46.8932    5360(73)          5279.1577         4949.6660       
  2095    46.9132    5089(71)          5222.3936         4948.6636       
  2096    46.9332    5127(72)          5178.8872         4947.6611       
  2097    46.9532    5215(72)          5144.5229         4945.6587       
  2098    46.9732    5228(72)          5120.8818         4945.6567       
  2099    46.9932    5286(73)          5103.0913         4944.6543       
  2100    47.0132    5145(72)          5090.5566         4943.6519       
  2101    47.0332    5092(71)          5081.0146         4941.6494       
  2102    47.0532    5171(72)          5075.5327         4940.6470       
  2103    47.0732    5155(72)          5073.4580         4940.6440       
  2104    47.0932    5149(72)          5071.3755         4938.6426       
  2105    47.1132    5207(72)          5072.0435         4937.6401       
  2106    47.1332    5162(72)          5074.3687         4936.6377       
  2107    47.1532    5014(71)          5078.3799         4935.6357       
  2108    47.1732    5096(71)          5083.2241         4933.6333       
  2109    47.1932    5023(71)          5092.1924         4933.6313       
  2110    47.2132    5213(72)          5102.7524         4932.6289       
  2111    47.2332    5277(73)          5116.6230         4931.6270       
  2112    47.2532    5149(72)          5133.8379         4929.6245       
  2113    47.2732    5199(72)          5157.8184         4928.6230       
  2114    47.2932    5107(71)          5190.4141         4928.6206       
  2115    47.3132    5185(72)          5231.8896         4927.6187       
  2116    47.3332    5146(72)          5285.8091         4926.6167       
  2117    47.3532    5146(72)          5353.8237         4924.6152       
  2118    47.3732    5397(73)          5440.3237         4923.6128       
  2119    47.3932    5538(74)          5546.0869         4922.6108       
  2120    47.4132    5675(75)          5672.6279         4922.6094       
  2121    47.4332    5684(75)          5816.4941         4921.6074       
  2122    47.4532    5975(77)          5973.0674         4919.6060       
  2123    47.4732    6277(79)          6134.7588         4918.6040       
  2124    47.4932    6314(79)          6284.1665         4917.6021       
  2125    47.5132    6470(80)          6399.0400         4917.6006       
  2126    47.5332    6510(81)          6452.8003         4916.5996       
  2127    47.5532    6656(82)          6431.0552         4914.5977       
  2128    47.5732    6558(81)          6340.6875         4913.5962       
  2129    47.5932    6249(79)          6200.6836         4912.5942       
  2130    47.6132    6017(78)          6036.9443         4911.5933       
  2131    47.6332    5793(76)          5871.7080         4911.5918       
  2132    47.6532    5814(76)          5716.7681         4910.5903       
  2133    47.6732    5422(74)          5579.6313         4908.5889       
  2134    47.6932    5390(73)          5467.1030         4907.5879       
  2135    47.7132    5414(74)          5374.8994         4906.5864       
  2136    47.7332    5306(73)          5304.0156         4906.5854       
  2137    47.7532    5351(73)          5249.7686         4905.5845       
  2138    47.7732    5341(73)          5210.0347         4904.5830       
  2139    47.7932    5091(71)          5181.7119         4903.5815       
  2140    47.8132    5305(73)          5161.0454         4901.5806       
  2141    47.8332    5129(72)          5147.8682         4900.5796       
  2142    47.8532    5188(72)          5140.7324         4900.5791       
  2143    47.8732    5358(73)          5136.8892         4899.5781       
  2144    47.8932    5073(71)          5137.1533         4898.5771       
  2145    47.9132    5164(72)          5141.7773         4897.5762       
  2146    47.9332    5109(71)          5151.3818         4896.5752       
  2147    47.9532    5073(71)          5167.9448         4896.5742       
  2148    47.9732    5232(72)          5190.7837         4895.5742       
  2149    47.9932    5113(72)          5222.4976         4894.5732       
  2150    48.0132    5275(73)          5263.8545         4892.5723       
  2151    48.0332    5406(74)          5318.5913         4891.5723       
  2152    48.0532    5420(74)          5387.2036         4890.5713       
  2153    48.0732    5566(75)          5471.5703         4890.5708       
  2154    48.0932    5626(75)          5569.5737         4889.5703       
  2155    48.1132    5590(75)          5680.4775         4888.5698       
  2156    48.1332    5803(76)          5799.9746         4887.5698       
  2157    48.1532    5883(77)          5919.8945         4886.5693       
  2158    48.1732    6025(78)          6028.3042         4886.5688       
  2159    48.1932    6136(78)          6107.2344         4885.5688       
  2160    48.2132    6135(78)          6143.2651         4884.5688       
  2161    48.2332    6174(79)          6133.1899         4883.5684       
  2162    48.2532    5965(77)          6087.0566         4882.5684       
  2163    48.2732    6055(78)          6023.5845         4881.5684       
  2164    48.2932    5818(76)          5963.2593         4881.5684       
  2165    48.3132    5905(77)          5919.5200         4880.5684       
  2166    48.3332    5998(77)          5903.7583         4879.5684       
  2167    48.3532    6012(78)          5921.9590         4878.5684       
  2168    48.3732    5874(77)          5976.3716         4877.5684       
  2169    48.3932    5988(77)          6066.7651         4877.5688       
  2170    48.4132    6237(79)          6185.9473         4876.5693       
  2171    48.4332    6204(79)          6324.6396         4875.5693       
  2172    48.4532    6437(80)          6465.7798         4874.5698       
  2173    48.4732    6498(81)          6584.8164         4873.5698       
  2174    48.4932    6620(81)          6653.3682         4872.5703       
  2175    48.5132    6588(81)          6650.4131         4872.5713       
  2176    48.5332    6460(80)          6569.8086         4871.5713       
  2177    48.5532    6462(80)          6428.3135         4870.5718       
  2178    48.5732    6304(79)          6252.1426         4869.5728       
  2179    48.5932    6256(79)          6063.9995         4868.5732       
  2180    48.6132    5899(77)          5887.7236         4868.5737       
  2181    48.6332    5666(75)          5729.8555         4867.5747       
  2182    48.6532    5469(74)          5597.8555         4867.5757       
  2183    48.6732    5568(75)          5491.4556         4866.5762       
  2184    48.6932    5500(74)          5410.9077         4865.5771       
  2185    48.7132    5628(75)          5353.8574         4864.5776       
  2186    48.7332    5380(73)          5317.9194         4864.5791       
  2187    48.7532    5455(74)          5297.0903         4863.5801       
  2188    48.7732    5357(73)          5287.8052         4862.5811       
  2189    48.7932    5405(74)          5284.8579         4861.5820       
  2190    48.8132    5185(72)          5282.4629         4860.5830       
  2191    48.8332    5162(72)          5277.0312         4861.5845       
  2192    48.8532    5160(72)          5260.8022         4860.5854       
  2193    48.8732    5155(72)          5235.2544         4859.5869       
  2194    48.8932    5307(73)          5202.8096         4858.5879       
  2195    48.9132    5117(72)          5167.1387         4857.5894       
  2196    48.9332    5186(72)          5131.5249         4856.5908       
  2197    48.9532    5102(71)          5099.2153         4856.5923       
  2198    48.9732    5084(71)          5070.4712         4856.5938       
  2199    48.9932    5274(73)          5044.8345         4855.5952       
  2200    49.0132    5100(71)          5023.3677         4854.5967       
  2201    49.0332    5050(71)          5005.8345         4853.5986       
  2202    49.0532    4969(70)          4992.8149         4853.6001       
  2203    49.0732    4945(70)          4982.8301         4853.6021       
  2204    49.0932    5045(71)          4974.4004         4852.6035       
  2205    49.1132    5003(71)          4968.1016         4851.6050       
  2206    49.1332    4937(70)          4963.5967         4850.6069       
  2207    49.1532    5013(71)          4961.6460         4850.6089       
  2208    49.1732    5012(71)          4961.1123         4850.6108       
  2209    49.1932    5014(71)          4960.9575         4849.6123       
  2210    49.2132    4947(70)          4962.2417         4848.6147       
  2211    49.2332    4936(70)          4965.1182         4847.6162       
  2212    49.2532    4973(71)          4970.8350         4847.6187       
  2213    49.2732    4980(71)          4978.7329         4847.6206       
  2214    49.2932    5037(71)          4988.2476         4846.6226       
  2215    49.3132    4885(70)          5000.9072         4845.6250       
  2216    49.3332    4861(70)          5018.3188         4845.6270       
  2217    49.3532    5173(72)          5039.1533         4844.6294       
  2218    49.3732    4982(71)          5066.0835         4844.6318       
  2219    49.3932    5038(71)          5097.7251         4843.6338       
  2220    49.4132    5108(71)          5132.8105         4843.6357       
  2221    49.4332    5101(71)          5176.7842         4842.6382       
  2222    49.4532    4985(71)          5226.3730         4841.6406       
  2223    49.4732    5206(72)          5280.3975         4840.6431       
  2224    49.4932    5196(72)          5339.2510         4841.6455       
  2225    49.5132    5163(72)          5397.4922         4840.6479       
  2226    49.5332    5192(72)          5456.1294         4839.6504       
  2227    49.5532    5221(72)          5514.8481         4839.6538       
  2228    49.5732    5392(73)          5568.2217         4838.6562       
  2229    49.5932    5461(74)          5611.4888         4838.6587       
  2230    49.6132    5484(74)          5634.3252         4838.6611       
  2231    49.6332    5602(75)          5627.5254         4837.6636       
  2232    49.6532    5460(74)          5589.7910         4836.6670       
  2233    49.6732    5440(74)          5527.4961         4836.6694       
  2234    49.6932    5375(73)          5448.7290         4835.6724       
  2235    49.7132    5258(73)          5365.7324         4835.6748       
  2236    49.7332    5320(73)          5285.2109         4835.6777       
  2237    49.7532    4984(71)          5210.8521         4834.6807       
  2238    49.7732    5173(72)          5146.0166         4833.6836       
  2239    49.7932    4866(70)          5092.4712         4833.6865       
  2240    49.8132    4842(70)          5048.9595         4833.6890       
  2241    49.8332    4958(70)          5014.6177         4833.6924       
  2242    49.8532    5071(71)          4987.2705         4832.6953       
  2243    49.8732    4937(70)          4967.0610         4831.6982       
  2244    49.8932    5031(71)          4953.0488         4831.7017       
  2245    49.9132    4884(70)          4942.6328         4830.7046       
  2246    49.9332    4890(70)          4936.0396         4829.7075       
  2247    49.9532    4888(70)          4932.6982         4828.7104       
  2248    49.9732    4949(70)          4931.1943         4826.7139       
  2249    49.9932    4772(69)          4934.2085         4826.7173       
  2250    50.0132    4939(70)          4937.4453         4824.7202       
  2251    50.0332    4858(70)          4943.5474         4823.7236       
  2252    50.0532    5077(71)          4950.9878         4822.7266       
  2253    50.0732    4825(69)          4958.9297         4821.7295       
  2254    50.0932    4859(70)          4966.1021         4820.7329       
  2255    50.1132    5031(71)          4967.2632         4818.7363       
  2256    50.1332    4944(70)          4967.9102         4817.7397       
  2257    50.1532    4905(70)          4963.4395         4816.7427       
  2258    50.1732    5118(72)          4953.1172         4814.7461       
  2259    50.1932    5103(71)          4940.2910         4813.7495       
  2260    50.2132    4961(70)          4924.6860         4811.7529       
  2261    50.2332    4985(71)          4909.7793         4810.7563       
  2262    50.2532    4942(70)          4895.5864         4809.7598       
  2263    50.2732    4826(69)          4882.6885         4808.7632       
  2264    50.2932    4863(70)          4870.3496         4806.7666       
  2265    50.3132    4720(69)          4860.6226         4805.7700       
  2266    50.3332    4924(70)          4852.4233         4804.7734       
  2267    50.3532    4807(69)          4845.5859         4803.7769       
  2268    50.3732    4893(70)          4838.9062         4801.7803       
  2269    50.3932    4848(70)          4833.1694         4799.7837       
  2270    50.4132    4893(70)          4826.1089         4799.7871       
  2271    50.4332    4800(69)          4821.7798         4797.7910       
  2272    50.4532    4847(70)          4818.8843         4796.7944       
  2273    50.4732    4844(70)          4815.3149         4794.7979       
  2274    50.4932    4859(70)          4814.0225         4794.8013       
  2275    50.5132    5008(71)          4810.8848         4792.8047       
  2276    50.5332    4786(69)          4808.8906         4791.8086       
  2277    50.5532    4967(70)          4806.0151         4789.8120       
  2278    50.5732    4839(70)          4804.2251         4788.8154       
  2279    50.5932    4939(70)          4802.5107         4787.8188       
  2280    50.6132    4968(70)          4800.8613         4786.8223       
  2281    50.6332    4917(70)          4798.2681         4784.8262       
  2282    50.6532    4738(69)          4796.7236         4783.8296       
  2283    50.6732    4739(69)          4795.2236         4782.8330       
  2284    50.6932    4709(69)          4793.7632         4781.8364       
  2285    50.7132    4817(69)          4791.3394         4779.8403       
  2286    50.7332    4906(70)          4789.9478         4778.8438       
  2287    50.7532    4831(70)          4787.9673         4777.8472       
  2288    50.7732    4884(70)          4786.6396         4776.8506       
  2289    50.7932    4837(70)          4784.3462         4774.8540       
  2290    50.8132    4972(71)          4783.0767         4773.8579       
  2291    50.8332    4884(70)          4781.8296         4772.8613       
  2292    50.8532    4812(69)          4780.6035         4771.8647       
  2293    50.8732    4745(69)          4780.7212         4769.8682       
  2294    50.8932    4669(68)          4779.5801         4768.8716       
  2295    50.9132    4842(70)          4778.4580         4767.8755       
  2296    50.9332    4746(69)          4777.3550         4766.8789       
  2297    50.9532    4949(70)          4776.2695         4765.8823       
  2298    50.9732    4809(69)          4774.2017         4763.8857       
  2299    50.9932    4870(70)          4773.1514         4762.8892       
  2300    51.0132    5033(71)          4773.3730         4762.8926       
  2301    51.0332    4810(69)          4774.3623         4763.8965       
  2302    51.0532    4820(69)          4774.3682         4763.8999       
  2303    51.0732    4641(68)          4774.3916         4763.9033       
  2304    51.0932    4833(70)          4774.4331         4763.9067       
  2305    51.1132    4841(70)          4775.4927         4764.9102       
  2306    51.1332    4638(68)          4774.5708         4763.9136       
  2307    51.1532    4791(69)          4775.6714         4764.9165       
  2308    51.1732    4848(70)          4776.7905         4765.9199       
  2309    51.1932    4888(70)          4777.9316         4766.9233       
  2310    51.2132    4664(68)          4778.0967         4766.9268       
  2311    51.2332    4821(69)          4778.2871         4766.9302       
  2312    51.2532    4762(69)          4779.5059         4767.9336       
  2313    51.2732    4713(69)          4778.7549         4766.9370       
  2314    51.2932    4821(69)          4780.0410         4767.9395       
  2315    51.3132    4906(70)          4780.3623         4767.9429       
  2316    51.3332    4837(70)          4781.7256         4768.9463       
  2317    51.3532    4685(68)          4781.1367         4767.9497       
  2318    51.3732    4771(69)          4782.5688         4768.9526       
  2319    51.3932    4912(70)          4783.0957         4768.9556       
  2320    51.4132    4842(70)          4784.6943         4769.9590       
  2321    51.4332    4929(70)          4784.3735         4768.9619       
  2322    51.4532    4864(70)          4785.7944         4769.9653       
  2323    51.4732    4932(70)          4787.6904         4770.9683       
  2324    51.4932    4867(70)          4787.7246         4769.9712       
  2325    51.5132    4787(69)          4789.9307         4770.9741       
  2326    51.5332    4698(69)          4791.3545         4770.9771       
  2327    51.5532    4810(69)          4794.0635         4771.9800       
  2328    51.5732    4682(68)          4793.4194         4770.9829       
  2329    51.5932    4903(70)          4797.0312         4771.9858       
  2330    51.6132    4925(70)          4800.2866         4771.9888       
  2331    51.6332    4884(70)          4804.3696         4771.9917       
  2332    51.6532    4869(70)          4809.4897         4771.9946       
  2333    51.6732    4746(69)          4816.8691         4772.9976       
  2334    51.6932    4773(69)          4824.7212         4773.0000       
  2335    51.7132    4966(70)          4834.2227         4773.0029       
  2336    51.7332    4923(70)          4845.4849         4773.0059       
  2337    51.7532    4821(69)          4859.4985         4774.0083       
  2338    51.7732    4887(70)          4874.0786         4774.0107       
  2339    51.7932    4779(69)          4889.7661         4774.0137       
  2340    51.8132    4954(70)          4906.6895         4775.0161       
  2341    51.8332    4892(70)          4921.4375         4775.0186       
  2342    51.8532    4870(70)          4933.0771         4775.0210       
  2343    51.8732    4961(70)          4939.5483         4775.0234       
  2344    51.8932    4884(70)          4940.4727         4776.0259       
  2345    51.9132    5095(71)          4933.8696         4776.0283       
  2346    51.9332    5054(71)          4922.2720         4776.0308       
  2347    51.9532    4831(70)          4907.5469         4776.0332       
  2348    51.9732    4726(69)          4892.7744         4777.0352       
  2349    51.9932    4865(70)          4876.4048         4776.0376       
  2350    52.0132    4855(70)          4863.3394         4777.0400       
  2351    52.0332    4737(69)          4851.0537         4777.0420       
  2352    52.0532    4701(69)          4841.7222         4778.0444       
  2353    52.0732    4787(69)          4832.3257         4777.0464       
  2354    52.0932    4805(69)          4826.7197         4778.0488       
  2355    52.1132    4767(69)          4821.4062         4778.0503       
  2356    52.1332    4808(69)          4818.7104         4779.0527       
  2357    52.1532    4907(70)          4816.1060         4779.0547       
  2358    52.1732    5002(71)          4815.3779         4780.0562       
  2359    52.1932    4852(70)          4814.3501         4780.0586       
  2360    52.2132    4942(70)          4814.8828         4781.0601       
  2361    52.2332    4791(69)          4815.8770         4782.0620       
  2362    52.2532    4760(69)          4817.2671         4783.0640       
  2363    52.2732    4845(70)          4818.0156         4783.0654       
  2364    52.2932    4785(69)          4819.1089         4783.0669       
  2365    52.3132    4875(70)          4821.5508         4784.0688       
  2366    52.3332    4872(70)          4824.3579         4785.0703       
  2367    52.3532    4752(69)          4827.5557         4786.0718       
  2368    52.3732    4968(70)          4830.1733         4786.0737       
  2369    52.3932    4971(71)          4834.2412         4787.0747       
  2370    52.4132    4863(70)          4838.7871         4788.0762       
  2371    52.4332    4872(70)          4843.8262         4789.0776       
  2372    52.4532    4963(70)          4848.3574         4789.0786       
  2373    52.4732    4972(71)          4854.3545         4790.0806       
  2374    52.4932    4788(69)          4859.7568         4790.0815       
  2375    52.5132    5069(71)          4867.4985         4792.0830       
  2376    52.5332    4873(70)          4873.5566         4792.0840       
  2377    52.5532    4732(69)          4880.0405         4792.0850       
  2378    52.5732    4871(70)          4888.7080         4793.0859       
  2379    52.5932    4887(70)          4898.1064         4794.0869       
  2380    52.6132    4691(68)          4909.3394         4795.0879       
  2381    52.6332    4878(70)          4922.2046         4795.0889       
  2382    52.6532    4898(70)          4939.6567         4796.0894       
  2383    52.6732    4909(70)          4960.8062         4796.0903       
  2384    52.6932    4858(70)          4988.8872         4797.0913       
  2385    52.7132    4948(70)          5024.1929         4798.0918       
  2386    52.7332    4964(70)          5067.0103         4798.0928       
  2387    52.7532    5077(71)          5120.4443         4799.0938       
  2388    52.7732    5212(72)          5183.2749         4799.0942       
  2389    52.7932    5365(73)          5257.7349         4800.0942       
  2390    52.8132    5211(72)          5342.2031         4801.0952       
  2391    52.8332    5409(74)          5433.7422         4801.0957       
  2392    52.8532    5605(75)          5529.4238         4801.0962       
  2393    52.8732    5629(75)          5624.5215         4803.0967       
  2394    52.8932    5678(75)          5705.2329         4803.0967       
  2395    52.9132    5802(76)          5762.7988         4804.0967       
  2396    52.9332    5922(77)          5785.1831         4804.0972       
  2397    52.9532    5727(76)          5769.6494         4804.0977       
  2398    52.9732    5663(75)          5722.7529         4806.0977       
  2399    52.9932    5681(75)          5650.8042         4806.0977       
  2400    53.0132    5605(75)          5567.1343         4806.0977       
  2401    53.0332    5419(74)          5481.6646         4807.0977       
  2402    53.0532    5388(73)          5398.8325         4808.0972       
  2403    53.0732    5566(75)          5320.3320         4808.0972       
  2404    53.0932    5241(72)          5249.2744         4809.0972       
  2405    53.1132    5065(71)          5184.2446         4809.0972       
  2406    53.1332    5003(71)          5126.7192         4809.0972       
  2407    53.1532    4962(70)          5078.9683         4811.0962       
  2408    53.1732    5017(71)          5036.8652         4811.0962       
  2409    53.1932    5165(72)          5001.8677         4811.0957       
  2410    53.2132    5055(71)          4974.1577         4812.0952       
  2411    53.2332    5067(71)          4950.7979         4812.0947       
  2412    53.2532    4937(70)          4932.8867         4813.0942       
  2413    53.2732    4889(70)          4918.6060         4814.0938       
  2414    53.2932    4934(70)          4906.2471         4814.0928       
  2415    53.3132    4942(70)          4896.2139         4814.0928       
  2416    53.3332    4771(69)          4890.0049         4816.0918       
  2417    53.3532    4845(70)          4883.2095         4816.0908       
  2418    53.3732    4932(70)          4877.5000         4816.0898       
  2419    53.3932    4962(70)          4872.6226         4816.0894       
  2420    53.4132    5209(72)          4869.3970         4817.0884       
  2421    53.4332    4937(70)          4866.6968         4818.0874       
  2422    53.4532    4914(70)          4863.4336         4818.0864       
  2423    53.4732    4720(69)          4860.5420         4818.0854       
  2424    53.4932    4763(69)          4858.9727         4819.0840       
  2425    53.5132    4705(69)          4857.6885         4820.0830       
  2426    53.5332    4830(69)          4855.6543         4820.0820       
  2427    53.5532    4845(70)          4853.8462         4820.0806       
  2428    53.5732    4975(71)          4853.2437         4821.0796       
  2429    53.5932    4791(69)          4851.8291         4821.0781       
  2430    53.6132    5055(71)          4851.5908         4822.0771       
  2431    53.6332    4813(69)          4850.5176         4822.0752       
  2432    53.6532    4855(70)          4851.6064         4824.0742       
  2433    53.6732    4990(71)          4850.8545         4824.0728       
  2434    53.6932    4733(69)          4851.2681         4825.0708       
  2435    53.7132    5000(71)          4850.8608         4825.0693       
  2436    53.7332    4946(70)          4851.6519         4826.0679       
  2437    53.7532    4903(70)          4852.6714         4827.0664       
  2438    53.7732    4946(70)          4853.9585         4828.0649       
  2439    53.7932    4882(70)          4854.5586         4828.0630       
  2440    53.8132    4843(70)          4856.5264         4829.0615       
  2441    53.8332    4813(69)          4857.9131         4829.0591       
  2442    53.8532    4838(70)          4860.7705         4830.0571       
  2443    53.8732    4820(69)          4864.1357         4831.0557       
  2444    53.8932    4570(68)          4867.0254         4831.0537       
  2445    53.9132    4875(70)          4871.0435         4832.0518       
  2446    53.9332    4713(69)          4874.8931         4832.0498       
  2447    53.9532    4678(68)          4880.0444         4833.0479       
  2448    53.9732    4838(70)          4884.2466         4833.0454       
  2449    53.9932    4740(69)          4890.1108         4835.0435       
  2450    54.0132    4840(70)          4893.1235         4835.0415       
  2451    54.0332    4777(69)          4895.7495         4836.0391       
  2452    54.0532    4913(70)          4895.6333         4836.0366       
  2453    54.0732    4814(69)          4894.7695         4837.0347       
  2454    54.0932    4976(71)          4891.5098         4837.0322       
  2455    54.1132    4820(69)          4888.3960         4838.0298       
  2456    54.1332    4746(69)          4883.9600         4838.0278       
  2457    54.1532    4984(71)          4881.6118         4840.0254       
  2458    54.1732    4970(70)          4877.6240         4840.0229       
  2459    54.1932    4941(70)          4875.1543         4841.0205       
  2460    54.2132    4899(70)          4873.6079         4841.0181       
  2461    54.2332    4789(69)          4871.3716         4841.0156       
  2462    54.2532    4847(70)          4870.7388         4842.0127       
  2463    54.2732    4760(69)          4869.6782         4842.0103       
  2464    54.2932    4868(70)          4870.1548         4843.0078       
  2465    54.3132    4958(70)          4870.1387         4843.0054       
  2466    54.3332    4814(69)          4871.6177         4844.0024       
  2467    54.3532    4947(70)          4872.6064         4844.0000       
  2468    54.3732    5094(71)          4876.1494         4845.9971       
  2469    54.3932    4914(70)          4878.3320         4845.9941       
  2470    54.4132    4870(70)          4882.2783         4846.9917       
  2471    54.4332    4772(69)          4886.1489         4846.9888       
  2472    54.4532    4953(70)          4892.1387         4847.9858       
  2473    54.4732    4929(70)          4898.4614         4847.9834       
  2474    54.4932    4843(70)          4907.3315         4848.9805       
  2475    54.5132    4904(70)          4916.9414         4848.9775       
  2476    54.5332    4838(70)          4928.4272         4848.9746       
  2477    54.5532    4985(71)          4942.8403         4849.9712       
  2478    54.5732    4911(70)          4958.0884         4849.9688       
  2479    54.5932    4820(69)          4975.8364         4850.9653       
  2480    54.6132    4915(70)          4993.7524         4850.9629       
  2481    54.6332    5006(71)          5012.2949         4851.9595       
  2482    54.6532    4805(69)          5028.0723         4851.9561       
  2483    54.6732    4886(70)          5041.0151         4852.9536       
  2484    54.6932    4908(70)          5049.6631         4852.9502       
  2485    54.7132    4958(70)          5049.6099         4853.9473       
  2486    54.7332    4764(69)          5041.5503         4853.9443       
  2487    54.7532    4886(70)          5028.8945         4854.9409       
  2488    54.7732    5044(71)          5011.8003         4854.9375       
  2489    54.7932    4730(69)          4994.3159         4855.9346       
  2490    54.8132    4817(69)          4975.0034         4854.9312       
  2491    54.8332    4963(70)          4958.8862         4855.9282       
  2492    54.8532    4931(70)          4943.5425         4855.9248       
  2493    54.8732    4802(69)          4930.2358         4855.9219       
  2494    54.8932    4878(70)          4920.0010         4856.9185       
  2495    54.9132    4745(69)          4910.7354         4856.9150       
  2496    54.9332    4776(69)          4904.2432         4857.9116       
  2497    54.9532    4807(69)          4898.2822         4857.9087       
  2498    54.9732    4927(70)          4894.5957         4858.9053       
  2499    54.9932    4869(70)          4890.9390         4858.9019       
  2500    55.0132    4912(70)          4886.8203         4859.8984       
  2501    55.0332    4830(69)          4884.6465         4859.8950       
  2502    55.0532    5012(71)          4883.9497         4860.8916       
  2503    55.0732    5100(71)          4882.6157         4860.8887       
  2504    55.0932    4821(69)          4882.5562         4861.8853       
  2505    55.1132    4845(70)          4880.7070         4860.8818       
  2506    55.1332    4825(69)          4881.0220         4861.8784       
  2507    55.1532    4878(70)          4880.2134         4861.8750       
  2508    55.1732    4895(70)          4879.7705         4861.8716       
  2509    55.1932    4708(69)          4880.4170         4862.8687       
  2510    55.2132    4733(69)          4880.1401         4862.8652       
  2511    55.2332    4775(69)          4880.9302         4863.8618       
  2512    55.2532    4805(69)          4880.7798         4863.8584       
  2513    55.2732    4869(70)          4881.6821         4864.8550       
  2514    55.2932    4737(69)          4881.6455         4864.8516       
  2515    55.3132    4847(70)          4882.6318         4865.8481       
  2516    55.3332    4948(70)          4882.8320         4865.8452       
  2517    55.3532    4680(68)          4883.8892         4866.8413       
  2518    55.3732    4929(70)          4882.9756         4865.8379       
  2519    55.3932    4810(69)          4884.0933         4866.8345       
  2520    55.4132    5079(71)          4884.2441         4866.8311       
  2521    55.4332    4921(70)          4885.4341         4867.8281       
  2522    55.4532    5050(71)          4885.6646         4867.8247       
  2523    55.4732    5071(71)          4885.9360         4867.8213       
  2524    55.4932    4888(70)          4887.2588         4868.8179       
  2525    55.5132    5064(71)          4887.6304         4868.8145       
  2526    55.5332    5001(71)          4889.0537         4869.8115       
  2527    55.5532    4766(69)          4888.5283         4868.8076       
  2528    55.5732    5000(71)          4890.0571         4869.8042       
  2529    55.5932    4909(70)          4890.6416         4869.8008       
  2530    55.6132    5010(71)          4892.2783         4870.7979       
  2531    55.6332    4871(70)          4892.9663         4870.7944       
  2532    55.6532    4853(70)          4893.7036         4870.7910       
  2533    55.6732    4884(70)          4895.4868         4871.7876       
  2534    55.6932    4956(70)          4898.8379         4871.7847       
  2535    55.7132    4893(70)          4899.7583         4871.7812       
  2536    55.7332    4896(70)          4900.7368         4871.7778       
  2537    55.7532    4729(69)          4901.7881         4871.7749       
  2538    55.7732    5110(71)          4902.9282         4871.7715       
  2539    55.7932    4974(71)          4905.1758         4872.7686       
  2540    55.8132    4795(69)          4906.5464         4872.7651       
  2541    55.8332    4826(69)          4908.2383         4872.7617       
  2542    55.8532    4843(70)          4910.9150         4873.7588       
  2543    55.8732    4886(70)          4911.7715         4872.7554       
  2544    55.8932    4900(70)          4913.8330         4872.7529       
  2545    55.9132    4856(70)          4917.4478         4873.7495       
  2546    55.9332    4786(69)          4920.0073         4873.7466       
  2547    55.9532    4918(70)          4922.8691         4873.7432       
  2548    55.9732    4932(70)          4926.0850         4873.7402       
  2549    55.9932    5043(71)          4929.7227         4873.7368       
  2550    56.0132    4961(70)          4932.8726         4872.7344       
  2551    56.0332    4843(70)          4938.6553         4873.7314       
  2552    56.0532    4741(69)          4944.2383         4873.7280       
  2553    56.0732    4841(70)          4950.8413         4873.7251       
  2554    56.0932    5071(71)          4959.7515         4874.7222       
  2555    56.1132    5109(71)          4969.3315         4874.7192       
  2556    56.1332    5031(71)          4981.0239         4874.7163       
  2557    56.1532    5005(71)          4995.3438         4874.7139       
  2558    56.1732    4850(70)          5012.8989         4874.7104       
  2559    56.1932    4906(70)          5034.2002         4874.7080       
  2560    56.2132    5239(72)          5060.8496         4875.7051       
  2561    56.2332    4976(71)          5091.3174         4875.7021       
  2562    56.2532    5096(71)          5127.4009         4875.6997       
  2563    56.2732    5153(72)          5168.1782         4875.6968       
  2564    56.2932    5125(72)          5213.7910         4875.6943       
  2565    56.3132    5360(73)          5263.3193         4875.6914       
  2566    56.3332    5181(72)          5316.0015         4876.6885       
  2567    56.3532    5215(72)          5366.9141         4876.6860       
  2568    56.3732    5492(74)          5412.7866         4876.6841       
  2569    56.3932    5446(74)          5448.3550         4876.6812       
  2570    56.4132    5710(76)          5468.7432         4876.6787       
  2571    56.4332    5388(73)          5470.4878         4876.6763       
  2572    56.4532    5697(75)          5455.2773         4877.6738       
  2573    56.4732    5484(74)          5424.9194         4877.6709       
  2574    56.4932    5330(73)          5385.9624         4877.6685       
  2575    56.5132    5439(74)          5344.9131         4878.6665       
  2576    56.5332    5491(74)          5303.2192         4877.6641       
  2577    56.5532    5400(73)          5267.0664         4877.6616       
  2578    56.5732    5429(74)          5237.6392         4877.6592       
  2579    56.5932    5298(73)          5217.4087         4878.6572       
  2580    56.6132    5355(73)          5205.3999         4878.6548       
  2581    56.6332    5275(73)          5203.3770         4878.6528       
  2582    56.6532    5334(73)          5211.9575         4878.6504       
  2583    56.6732    5367(73)          5231.6787         4878.6489       
  2584    56.6932    5290(73)          5262.9907         4878.6465       
  2585    56.7132    5377(73)          5307.2446         4879.6445       
  2586    56.7332    5302(73)          5362.7041         4879.6421       
  2587    56.7532    5656(75)          5429.8008         4879.6406       
  2588    56.7732    5498(74)          5507.8174         4879.6387       
  2589    56.7932    5657(75)          5595.0063         4879.6362       
  2590    56.8132    5671(75)          5688.4155         4879.6348       
  2591    56.8332    5848(76)          5784.5508         4880.6328       
  2592    56.8532    5965(77)          5874.6221         4880.6313       
  2593    56.8732    5747(76)          5952.2773         4880.6289       
  2594    56.8932    5947(77)          6008.4829         4881.6274       
  2595    56.9132    5922(77)          6031.2500         4880.6260       
  2596    56.9332    6055(78)          6018.3691         4880.6240       
  2597    56.9532    5843(76)          5970.8892         4881.6226       
  2598    56.9732    5822(76)          5893.8838         4881.6211       
  2599    56.9932    5740(76)          5798.6196         4881.6196       
  2600    57.0132    5820(76)          5696.2744         4882.6177       
  2601    57.0332    5590(75)          5591.9858         4881.6162       
  2602    57.0532    5543(74)          5494.2881         4881.6152       
  2603    57.0732    5321(73)          5406.5591         4882.6138       
  2604    57.0932    5384(73)          5328.4917         4882.6123       
  2605    57.1132    5303(73)          5261.5942         4882.6108       
  2606    57.1332    5183(72)          5206.5679         4883.6099       
  2607    57.1532    5235(72)          5160.5850         4883.6084       
  2608    57.1732    5063(71)          5122.5186         4882.6074       
  2609    57.1932    5134(72)          5094.1152         4883.6064       
  2610    57.2132    5241(72)          5071.1108         4883.6050       
  2611    57.2332    5248(72)          5053.3594         4883.6040       
  2612    57.2532    5187(72)          5040.8857         4884.6030       
  2613    57.2732    5073(71)          5030.8154         4884.6021       
  2614    57.2932    5002(71)          5023.5342         4884.6016       
  2615    57.3132    5056(71)          5018.5630         4884.6001       
  2616    57.3332    4999(71)          5015.6172         4884.5996       
  2617    57.3532    4922(70)          5014.3735         4884.5986       
  2618    57.3732    4973(71)          5015.7407         4885.5977       
  2619    57.3932    4943(70)          5017.6353         4885.5967       
  2620    57.4132    4955(70)          5021.0049         4885.5962       
  2621    57.4332    5227(72)          5026.8042         4886.5957       
  2622    57.4532    5030(71)          5032.9717         4886.5952       
  2623    57.4732    4945(70)          5039.4038         4885.5942       
  2624    57.4932    5170(72)          5048.9233         4886.5938       
  2625    57.5132    5151(72)          5058.2407         4886.5933       
  2626    57.5332    4972(71)          5067.9312         4886.5928       
  2627    57.5532    5245(72)          5078.4678         4887.5923       
  2628    57.5732    5057(71)          5087.3428         4887.5918       
  2629    57.5932    5317(73)          5095.2412         4887.5913       
  2630    57.6132    5233(72)          5103.3594         4888.5908       
  2631    57.6332    5209(72)          5109.4438         4887.5913       
  2632    57.6532    5172(72)          5117.6909         4887.5908       
  2633    57.6732    5210(72)          5129.5322         4888.5903       
  2634    57.6932    5254(72)          5144.4541         4888.5903       
  2635    57.7132    5322(73)          5164.8457         4888.5903       
  2636    57.7332    5332(73)          5192.0347         4888.5898       
  2637    57.7532    5361(73)          5228.2041         4889.5903       
  2638    57.7732    5548(74)          5272.3511         4889.5898       
  2639    57.7932    5480(74)          5326.2104         4889.5903       
  2640    57.8132    5462(74)          5390.1416         4889.5903       
  2641    57.8332    5567(75)          5463.9731         4889.5903       
  2642    57.8532    5579(75)          5547.1104         4889.5908       
  2643    57.8732    5685(75)          5637.8511         4890.5903       
  2644    57.8932    5726(76)          5731.0234         4890.5908       
  2645    57.9132    5730(76)          5822.0366         4890.5913       
  2646    57.9332    5924(77)          5903.7920         4891.5918       
  2647    57.9532    5992(77)          5965.2178         4891.5918       
  2648    57.9732    5951(77)          5998.9292         4891.5918       
  2649    57.9932    6028(78)          6001.4214         4892.5923       
  2650    58.0132    6027(78)          5971.0435         4891.5928       
  2651    58.0332    5815(76)          5917.3623         4891.5933       
  2652    58.0532    5831(76)          5849.3354         4892.5938       
  2653    58.0732    5623(75)          5773.4609         4892.5947       
  2654    58.0932    5847(76)          5697.1035         4892.5952       
  2655    58.1132    5718(76)          5625.2236         4893.5957       
  2656    58.1332    5550(74)          5557.8467         4893.5962       
  2657    58.1532    5708(76)          5496.6748         4893.5972       
  2658    58.1732    5459(74)          5442.5635         4894.5981       
  2659    58.1932    5451(74)          5392.8760         4894.5986       
  2660    58.2132    5580(75)          5347.8271         4894.5996       
  2661    58.2332    5390(73)          5307.9326         4895.6006       
  2662    58.2532    5246(72)          5271.1841         4895.6011       
  2663    58.2732    5406(74)          5237.9707         4894.6021       
  2664    58.2932    5141(72)          5211.8042         4895.6030       
  2665    58.3132    5184(72)          5190.0879         4895.6040       
  2666    58.3332    5167(72)          5174.0244         4895.6050       
  2667    58.3532    5214(72)          5164.6133         4896.6060       
  2668    58.3732    5215(72)          5159.6812         4896.6069       
  2669    58.3932    5122(72)          5159.8872         4896.6084       
  2670    58.4132    5135(72)          5165.7104         4897.6089       
  2671    58.4332    5150(72)          5174.4126         4897.6104       
  2672    58.4532    5222(72)          5186.0132         4897.6118       
  2673    58.4732    5189(72)          5200.3091         4898.6128       
  2674    58.4932    5105(71)          5213.9478         4898.6143       
  2675    58.5132    5139(72)          5226.5063         4898.6152       
  2676    58.5332    5132(72)          5237.5327         4899.6167       
  2677    58.5532    5069(71)          5243.6260         4899.6182       
  2678    58.5732    5191(72)          5244.6616         4899.6196       
  2679    58.5932    5139(72)          5241.2002         4900.6206       
  2680    58.6132    5134(72)          5231.7480         4900.6221       
  2681    58.6332    5284(73)          5217.5898         4899.6235       
  2682    58.6532    5304(73)          5201.9707         4900.6250       
  2683    58.6732    5067(71)          5185.7793         4900.6265       
  2684    58.6932    5088(71)          5169.3882         4900.6284       
  2685    58.7132    5209(72)          5153.9248         4901.6294       
  2686    58.7332    5182(72)          5137.2183         4901.6309       
  2687    58.7532    5091(71)          5120.1289         4901.6323       
  2688    58.7732    5088(71)          5103.8105         4902.6343       
  2689    58.7932    5127(72)          5086.7349         4902.6357       
  2690    58.8132    5043(71)          5070.5298         4902.6372       
  2691    58.8332    4959(70)          5056.7778         4903.6392       
  2692    58.8532    5012(71)          5043.8926         4903.6406       
  2693    58.8732    5035(71)          5033.1074         4903.6426       
  2694    58.8932    4944(70)          5024.4917         4903.6445       
  2695    58.9132    5088(71)          5020.0054         4905.6465       
  2696    58.9332    5036(71)          5015.5117         4905.6479       
  2697    58.9532    4986(71)          5012.8804         4905.6499       
  2698    58.9732    4896(70)          5012.6323         4906.6514       
  2699    58.9932    4993(71)          5012.4458         4906.6533       
  2700    59.0132    4848(70)          5014.5596         4906.6553       
  2701    59.0332    4850(70)          5015.8486         4907.6572       
  2702    59.0532    5121(72)          5015.3867         4907.6592       
  2703    59.0732    4877(70)          5013.6240         4907.6611       
  2704    59.0932    4881(70)          5011.0674         4908.6626       
  2705    59.1132    4792(69)          5006.2383         4908.6650       
  2706    59.1332    4944(70)          5000.2769         4908.6670       
  2707    59.1532    5030(71)          4994.6714         4909.6685       
  2708    59.1732    5059(71)          4985.3525         4909.6704       
  2709    59.1932    4940(70)          4978.7998         4909.6729       
  2710    59.2132    4962(70)          4973.6743         4910.6748       
  2711    59.2332    4950(70)          4968.0991         4910.6768       
  2712    59.2532    4758(69)          4963.2085         4910.6787       
  2713    59.2732    4796(69)          4959.9980         4911.6807       
  2714    59.2932    4760(69)          4956.4585         4911.6826       
  2715    59.3132    4968(70)          4953.5581         4911.6851       
  2716    59.3332    4884(70)          4952.2520         4912.6870       
  2717    59.3532    4976(71)          4950.4917         4912.6890       
  2718    59.3732    5106(71)          4949.2319         4912.6914       
  2719    59.3932    4984(71)          4949.4307         4913.6934       
  2720    59.4132    4869(70)          4949.0562         4913.6948       
  2721    59.4332    5011(71)          4949.0854         4913.6973       
  2722    59.4532    4925(70)          4950.4990         4914.6992       
  2723    59.4732    4944(70)          4951.2856         4914.7017       
  2724    59.4932    4907(70)          4952.4302         4914.7036       
  2725    59.5132    5096(71)          4953.9141         4914.7056       
  2726    59.5332    5088(71)          4955.7065         4914.7080       
  2727    59.5532    5176(72)          4957.7559         4914.7100       
  2728    59.5732    5003(71)          4958.9824         4913.7124       
  2729    59.5932    5045(71)          4961.2725         4913.7144       
  2730    59.6132    5051(71)          4963.4829         4913.7163       
  2731    59.6332    4877(70)          4965.4556         4913.7188       
  2732    59.6532    5081(71)          4967.0356         4913.7207       
  2733    59.6732    4978(71)          4968.0977         4913.7231       
  2734    59.6932    4936(70)          4968.5576         4913.7251       
  2735    59.7132    4945(70)          4968.3994         4913.7271       
  2736    59.7332    4938(70)          4966.6948         4912.7295       
  2737    59.7532    4953(70)          4965.6001         4912.7314       
  2738    59.7732    4918(70)          4964.3301         4912.7339       
  2739    59.7932    4881(70)          4963.0996         4912.7358       
  2740    59.8132    4943(70)          4962.1021         4912.7378       
  2741    59.8332    5007(71)          4961.4888         4912.7402       
  2742    59.8532    4917(70)          4961.3535         4912.7422       
  2743    59.8732    4909(70)          4961.6357         4912.7441       
  2744    59.8932    4874(70)          4961.7280         4911.7466       
  2745    59.9132    4935(70)          4963.5010         4911.7485       
  2746    59.9332    4886(70)          4965.9976         4911.7505       
  2747    59.9532    4779(69)          4969.2671         4911.7529       
  2748    59.9732    4987(71)          4973.3784         4911.7549       
  2749    59.9932    4878(70)          4978.4331         4911.7568       
  2750    60.0132    4991(71)          4984.5684         4911.7593       
  2751    60.0332    4937(70)          4991.9136         4911.7612       
  2752    60.0532    4877(70)          5000.6108         4911.7632       
  2753    60.0732    4943(70)          5009.7612         4910.7651       
  2754    60.0932    5081(71)          5021.4224         4910.7676       
  2755    60.1132    4892(70)          5034.5967         4910.7690       
  2756    60.1332    5098(71)          5049.1782         4910.7710       
  2757    60.1532    5145(72)          5064.9229         4910.7729       
  2758    60.1732    4966(70)          5081.3467         4910.7754       
  2759    60.1932    5211(72)          5097.6562         4910.7773       
  2760    60.2132    5140(72)          5113.7314         4911.7793       
  2761    60.2332    5063(71)          5125.1963         4910.7812       
  2762    60.2532    4932(70)          5133.6636         4910.7827       
  2763    60.2732    5028(71)          5137.0669         4910.7847       
  2764    60.2932    5325(73)          5132.4741         4910.7866       
  2765    60.3132    5103(71)          5125.0698         4910.7891       
  2766    60.3332    5093(71)          5113.1846         4910.7910       
  2767    60.3532    5002(71)          5098.0132         4910.7925       
  2768    60.3732    5119(72)          5080.9253         4910.7944       
  2769    60.3932    5056(71)          5063.1714         4910.7964       
  2770    60.4132    5084(71)          5044.7622         4909.7979       
  2771    60.4332    5070(71)          5028.2339         4909.7998       
  2772    60.4532    4987(71)          5013.3828         4909.8018       
  2773    60.4732    4702(69)          5000.2539         4909.8032       
  2774    60.4932    4897(70)          4988.9131         4909.8052       
  2775    60.5132    5033(71)          4979.3140         4909.8066       
  2776    60.5332    4918(70)          4971.0239         4909.8081       
  2777    60.5532    4997(71)          4964.5166         4909.8101       
  2778    60.5732    4996(71)          4958.3003         4908.8115       
  2779    60.5932    4955(70)          4954.1650         4908.8135       
  2780    60.6132    4999(71)          4950.9453         4908.8149       
  2781    60.6332    4898(70)          4948.4819         4908.8164       
  2782    60.6532    4809(69)          4946.7642         4908.8179       
  2783    60.6732    4951(70)          4945.4263         4908.8193       
  2784    60.6932    4971(71)          4944.5015         4908.8213       
  2785    60.7132    4839(70)          4943.9170         4908.8223       
  2786    60.7332    4917(70)          4942.6216         4907.8242       
  2787    60.7532    4848(70)          4942.5757         4907.8257       
  2788    60.7732    4971(71)          4942.7529         4907.8267       
  2789    60.7932    5003(71)          4943.1387         4907.8281       
  2790    60.8132    5021(71)          4943.7241         4907.8296       
  2791    60.8332    4808(69)          4944.3584         4907.8311       
  2792    60.8532    4973(71)          4945.3452         4907.8320       
  2793    60.8732    5083(71)          4946.5439         4907.8335       
  2794    60.8932    5111(71)          4947.9673         4907.8345       
  2795    60.9132    4846(70)          4948.1494         4906.8359       
  2796    60.9332    5057(71)          4950.0913         4906.8369       
  2797    60.9532    4750(69)          4952.9512         4906.8379       
  2798    60.9732    4974(71)          4955.5425         4906.8394       
  2799    60.9932    4923(70)          4958.5215         4906.8403       
  2800    61.0132    5139(72)          4961.9585         4906.8413       
  2801    61.0332    5034(71)          4965.9429         4906.8428       
  2802    61.0532    4908(70)          4970.5933         4906.8438       
  2803    61.0732    5095(71)          4975.0640         4905.8447       
  2804    61.0932    5030(71)          4981.3384         4905.8457       
  2805    61.1132    4992(71)          4989.1089         4905.8467       
  2806    61.1332    5280(73)          4998.4722         4905.8472       
  2807    61.1532    5031(71)          5009.8154         4905.8481       
  2808    61.1732    5154(72)          5023.5913         4905.8491       
  2809    61.1932    5000(71)          5040.3052         4905.8496       
  2810    61.2132    5075(71)          5060.5254         4905.8506       
  2811    61.2332    5257(73)          5084.8145         4905.8511       
  2812    61.2532    5161(72)          5112.7183         4904.8521       
  2813    61.2732    5123(72)          5146.7065         4904.8530       
  2814    61.2932    5049(71)          5186.1133         4904.8535       
  2815    61.3132    5158(72)          5231.0630         4904.8540       
  2816    61.3332    5305(73)          5281.3765         4904.8550       
  2817    61.3532    5163(72)          5336.4360         4904.8550       
  2818    61.3732    5390(73)          5395.0737         4904.8560       
  2819    61.3932    5433(74)          5455.3076         4904.8564       
  2820    61.4132    5496(74)          5513.1953         4903.8569       
  2821    61.4332    5655(75)          5566.5703         4903.8569       
  2822    61.4532    5538(74)          5609.8389         4903.8579       
  2823    61.4732    5624(75)          5637.7578         4903.8579       
  2824    61.4932    5614(75)          5646.3071         4903.8584       
  2825    61.5132    5468(74)          5633.9019         4903.8584       
  2826    61.5332    5551(75)          5602.0732         4903.8589       
  2827    61.5532    5417(74)          5554.9141         4903.8589       
  2828    61.5732    5590(75)          5497.7515         4903.8594       
  2829    61.5932    5295(73)          5434.7524         4902.8594       
  2830    61.6132    5144(72)          5372.1177         4902.8594       
  2831    61.6332    5369(73)          5311.8613         4902.8599       
  2832    61.6532    5140(72)          5255.9287         4902.8599       
  2833    61.6732    5213(72)          5205.4346         4902.8594       
  2834    61.6932    5093(71)          5160.8872         4902.8599       
  2835    61.7132    5087(71)          5122.3286         4902.8599       
  2836    61.7332    5061(71)          5089.5181         4902.8599       
  2837    61.7532    5064(71)          5061.0000         4901.8594       
  2838    61.7732    5070(71)          5038.1992         4901.8594       
  2839    61.7932    4954(70)          5019.4824         4901.8589       
  2840    61.8132    5029(71)          5004.2178         4901.8589       
  2841    61.8332    5065(71)          4991.8076         4901.8584       
  2842    61.8532    5086(71)          4981.7173         4901.8584       
  2843    61.8732    5065(71)          4973.4790         4901.8579       
  2844    61.8932    4975(71)          4965.7085         4900.8579       
  2845    61.9132    4996(71)          4959.0908         4899.8574       
  2846    61.9332    4864(70)          4954.3760         4899.8569       
  2847    61.9532    4866(70)          4950.4268         4899.8564       
  2848    61.9732    5005(71)          4946.9829         4899.8560       
  2849    61.9932    4993(71)          4943.9868         4899.8555       
  2850    62.0132    4972(71)          4941.3540         4899.8550       
  2851    62.0332    4910(70)          4938.9941         4899.8540       
  2852    62.0532    4725(69)          4936.9126         4899.8540       
  2853    62.0732    4980(71)          4935.3857         4899.8530       
  2854    62.0932    4761(69)          4932.7095         4898.8525       
  2855    62.1132    4729(69)          4931.1494         4898.8521       
  2856    62.1332    5022(71)          4929.7847         4898.8511       
  2857    62.1532    4854(70)          4928.5527         4898.8501       
  2858    62.1732    4942(70)          4927.4409         4898.8491       
  2859    62.1932    4950(70)          4925.4395         4897.8481       
  2860    62.2132    4977(71)          4924.5381         4897.8477       
  2861    62.2332    4955(70)          4923.7275         4897.8467       
  2862    62.2532    4954(70)          4921.9980         4896.8457       
  2863    62.2732    4996(71)          4921.3433         4896.8447       
  2864    62.2932    4895(70)          4920.7559         4896.8438       
  2865    62.3132    4767(69)          4919.2329         4895.8423       
  2866    62.3332    4925(70)          4918.7764         4895.8418       
  2867    62.3532    4804(69)          4917.3882         4894.8408       
  2868    62.3732    4950(70)          4916.0713         4893.8394       
  2869    62.3932    5029(71)          4915.8164         4893.8384       
  2870    62.4132    4943(70)          4915.6519         4893.8369       
  2871    62.4332    4780(69)          4914.5630         4892.8359       
  2872    62.4532    5000(71)          4914.5430         4892.8345       
  2873    62.4732    4921(70)          4914.5825         4892.8330       
  2874    62.4932    4873(70)          4914.6675         4892.8320       
  2875    62.5132    4854(70)          4913.7646         4891.8306       
  2876    62.5332    5103(71)          4913.8901         4891.8291       
  2877    62.5532    4955(70)          4914.0156         4891.8276       
  2878    62.5732    4744(69)          4913.1367         4890.8267       
  2879    62.5932    4990(71)          4913.2544         4890.8252       
  2880    62.6132    4973(71)          4913.3740         4890.8237       
  2881    62.6332    5023(71)          4912.5020         4889.8218       
  2882    62.6532    4874(70)          4912.6436         4889.8203       
  2883    62.6732    4913(70)          4912.8076         4889.8188       
  2884    62.6932    4965(70)          4911.6836         4888.8174       
  2885    62.7132    4861(70)          4911.9424         4888.8154       
  2886    62.7332    4961(70)          4912.2769         4888.8140       
  2887    62.7532    4915(70)          4910.5044         4886.8125       
  2888    62.7732    4941(70)          4911.0454         4886.8105       
  2889    62.7932    4918(70)          4911.7036         4886.8091       
  2890    62.8132    4927(70)          4912.7456         4885.8071       
  2891    62.8332    4962(70)          4913.6538         4885.8052       
  2892    62.8532    4928(70)          4914.6719         4885.8037       
  2893    62.8732    4990(71)          4915.7998         4885.8018       
  2894    62.8932    4911(70)          4916.0552         4884.8003       
  2895    62.9132    4974(71)          4917.4741         4884.7979       
  2896    62.9332    5029(71)          4919.1147         4884.7959       
  2897    62.9532    4847(70)          4920.0469         4883.7944       
  2898    62.9732    4806(69)          4922.5933         4883.7920       
  2899    62.9932    4772(69)          4925.3237         4883.7905       
  2900    63.0132    4934(70)          4927.5405         4882.7881       
  2901    63.0332    4851(70)          4931.2861         4882.7861       
  2902    63.0532    4801(69)          4935.5869         4882.7842       
  2903    63.0732    4891(70)          4939.4829         4881.7822       
  2904    63.0932    4982(71)          4944.8765         4881.7798       
  2905    63.1132    4891(70)          4950.7534         4881.7783       
  2906    63.1332    5008(71)          4955.0244         4879.7759       
  2907    63.1532    4942(70)          4961.5645         4879.7739       
  2908    63.1732    4918(70)          4968.2119         4879.7715       
  2909    63.1932    4981(71)          4973.7817         4878.7700       
  2910    63.2132    4971(71)          4979.1040         4877.7676       
  2911    63.2332    4925(70)          4985.0879         4877.7651       
  2912    63.2532    4918(70)          4990.7959         4877.7632       
  2913    63.2732    4926(70)          4995.4790         4876.7607       
  2914    63.2932    5129(72)          5001.5454         4876.7583       
  2915    63.3132    5074(71)          5008.4702         4876.7563       
  2916    63.3332    4888(70)          5015.6929         4875.7544       
  2917    63.3532    4996(71)          5025.5425         4875.7520       
  2918    63.3732    5020(71)          5037.2017         4875.7495       
  2919    63.3932    5056(71)          5049.6616         4874.7471       
  2920    63.4132    5026(71)          5066.3945         4874.7446       
  2921    63.4332    5133(72)          5082.5576         4874.7427       
  2922    63.4532    5226(72)          5098.0176         4873.7402       
  2923    63.4732    5193(72)          5113.6191         4873.7378       
  2924    63.4932    5027(71)          5126.8804         4873.7354       
  2925    63.5132    5191(72)          5136.1738         4873.7329       
  2926    63.5332    5136(72)          5139.0679         4872.7305       
  2927    63.5532    5161(72)          5136.7466         4872.7280       
  2928    63.5732    5283(73)          5128.2812         4872.7256       
  2929    63.5932    5132(72)          5113.5957         4871.7231       
  2930    63.6132    5041(71)          5096.2764         4871.7207       
  2931    63.6332    5049(71)          5076.6372         4871.7183       
  2932    63.6532    5054(71)          5054.1992         4869.7158       
  2933    63.6732    5060(71)          5034.0376         4869.7134       
  2934    63.6932    5092(71)          5014.9028         4869.7109       
  2935    63.7132    4995(71)          4996.2627         4868.7085       
  2936    63.7332    4971(71)          4980.3848         4868.7061       
  2937    63.7532    4981(71)          4966.3770         4868.7036       
  2938    63.7732    4927(70)          4953.2373         4867.7012       
  2939    63.7932    4887(70)          4942.8765         4867.6987       
  2940    63.8132    5036(71)          4934.1567         4867.6958       
  2941    63.8332    4957(70)          4926.9087         4867.6934       
  2942    63.8532    4807(69)          4919.9473         4866.6909       
  2943    63.8732    5083(71)          4915.0835         4866.6885       
  2944    63.8932    4812(69)          4911.1431         4866.6860       
  2945    63.9132    4911(70)          4908.1104         4865.6836       
  2946    63.9332    4929(70)          4905.5767         4865.6812       
  2947    63.9532    4999(71)          4903.5493         4865.6787       
  2948    63.9732    4989(71)          4900.9321         4864.6763       
  2949    63.9932    5013(71)          4897.9097         4864.6738       
  2950    64.0132    4838(70)          4896.9258         4864.6714       
  2951    64.0332    4825(69)          4895.1675         4863.6689       
  2952    64.0532    4905(70)          4894.6001         4863.6660       
  2953    64.0732    5126(72)          4894.2559         4863.6636       
  2954    64.0932    4917(70)          4893.0034         4862.6606       
  2955    64.1132    4898(70)          4892.8887         4862.6582       
  2956    64.1332    4939(70)          4892.9043         4862.6558       
  2957    64.1532    4873(70)          4893.0479         4862.6533       
  2958    64.1732    4945(70)          4892.3213         4861.6509       
  2959    64.1932    4881(70)          4892.7310         4861.6484       
  2960    64.2132    4958(70)          4893.2969         4861.6460       
  2961    64.2332    4770(69)          4894.0146         4861.6436       
  2962    64.2532    4991(71)          4893.9150         4860.6411       
  2963    64.2732    4766(69)          4895.0249         4860.6387       
  2964    64.2932    4926(70)          4896.3794         4860.6362       
  2965    64.3132    4866(70)          4898.0195         4860.6338       
  2966    64.3332    4902(70)          4899.9985         4860.6313       
  2967    64.3532    4877(70)          4901.3745         4859.6289       
  2968    64.3732    4768(69)          4904.2183         4859.6265       
  2969    64.3932    5060(71)          4907.6040         4859.6240       
  2970    64.4132    4918(70)          4911.6162         4859.6216       
  2971    64.4332    4981(71)          4915.3354         4858.6191       
  2972    64.4532    4958(70)          4921.8433         4859.6167       
  2973    64.4732    5037(71)          4928.2119         4859.6143       
  2974    64.4932    4898(70)          4934.4854         4858.6118       
  2975    64.5132    5156(72)          4942.6870         4858.6094       
  2976    64.5332    5000(71)          4950.7812         4857.6069       
  2977    64.5532    4848(70)          4960.6899         4857.6050       
  2978    64.5732    5052(71)          4971.2505         4857.6030       
  2979    64.5932    5193(72)          4982.2485         4857.6006       
  2980    64.6132    5154(72)          4992.3916         4856.5981       
  2981    64.6332    5014(71)          5003.3403         4856.5957       
  2982    64.6532    5153(72)          5013.6851         4856.5933       
  2983    64.6732    5059(71)          5022.9634         4856.5908       
  2984    64.6932    4958(70)          5030.4541         4856.5894       
  2985    64.7132    5406(74)          5034.5327         4855.5869       
  2986    64.7332    5075(71)          5036.6172         4855.5845       
  2987    64.7532    5156(72)          5035.3940         4855.5820       
  2988    64.7732    5094(71)          5030.9653         4855.5806       
  2989    64.7932    5088(71)          5022.8335         4854.5781       
  2990    64.8132    5023(71)          5013.7764         4854.5757       
  2991    64.8332    5061(71)          5004.6279         4855.5737       
  2992    64.8532    5120(72)          4994.1924         4855.5718       
  2993    64.8732    4993(71)          4983.9844         4855.5693       
  2994    64.8932    4880(70)          4973.4756         4854.5674       
  2995    64.9132    4977(71)          4964.9404         4854.5654       
  2996    64.9332    4964(70)          4957.5562         4854.5635       
  2997    64.9532    5025(71)          4951.4014         4854.5615       
  2998    64.9732    4901(70)          4945.5059         4853.5596       
  2999    64.9932    4896(70)          4941.8628         4853.5576       
  3000    65.0132    5047(71)          4939.4385         4853.5557       
  3001    65.0332    5037(71)          4938.1963         4853.5537       
  3002    65.0532    4979(71)          4938.1001         4853.5518       
  3003    65.0732    4904(70)          4939.1318         4853.5498       
  3004    65.0932    4961(70)          4941.2954         4853.5479       
  3005    65.1132    5044(71)          4944.6440         4853.5459       
  3006    65.1332    4941(70)          4949.2549         4853.5439       
  3007    65.1532    5067(71)          4954.2607         4852.5425       
  3008    65.1732    4998(71)          4961.8306         4852.5410       
  3009    65.1932    5058(71)          4971.1885         4852.5386       
  3010    65.2132    4983(71)          4982.5864         4852.5371       
  3011    65.2332    4979(71)          4996.3120         4852.5356       
  3012    65.2532    5085(71)          5012.6670         4852.5337       
  3013    65.2732    5071(71)          5031.9468         4852.5322       
  3014    65.2932    5102(71)          5054.4321         4852.5303       
  3015    65.3132    5073(71)          5080.3271         4852.5288       
  3016    65.3332    5050(71)          5108.7900         4851.5273       
  3017    65.3532    5167(72)          5141.8179         4851.5254       
  3018    65.3732    5325(73)          5178.2856         4851.5239       
  3019    65.3932    5327(73)          5217.7778         4851.5225       
  3020    65.4132    5402(73)          5260.6035         4852.5210       
  3021    65.4332    5239(72)          5302.5703         4851.5195       
  3022    65.4532    5383(73)          5344.9937         4851.5181       
  3023    65.4732    5641(75)          5384.5791         4851.5171       
  3024    65.4932    5474(74)          5418.5718         4851.5156       
  3025    65.5132    5474(74)          5443.2290         4850.5142       
  3026    65.5332    5586(75)          5458.3608         4850.5127       
  3027    65.5532    5360(73)          5463.0391         4851.5112       
  3028    65.5732    5625(75)          5455.8413         4851.5103       
  3029    65.5932    5379(73)          5439.6279         4851.5093       
  3030    65.6132    5290(73)          5415.9312         4850.5078       
  3031    65.6332    5356(73)          5389.2520         4850.5068       
  3032    65.6532    5329(73)          5360.6089         4850.5054       
  3033    65.6732    5258(73)          5332.4463         4851.5044       
  3034    65.6932    5327(73)          5302.6494         4850.5034       
  3035    65.7132    4949(70)          5274.8633         4850.5020       
  3036    65.7332    5170(72)          5248.6035         4850.5010       
  3037    65.7532    5190(72)          5224.5112         4850.5005       
  3038    65.7732    5329(73)          5203.2085         4850.4990       
  3039    65.7932    5132(72)          5185.3296         4850.4980       
  3040    65.8132    5254(72)          5171.4658         4850.4971       
  3041    65.8332    5174(72)          5161.9766         4850.4961       
  3042    65.8532    5023(71)          5157.5454         4850.4956       
  3043    65.8732    5077(71)          5157.3955         4849.4946       
  3044    65.8932    5122(72)          5163.8213         4849.4941       
  3045    65.9132    4987(71)          5177.0469         4850.4927       
  3046    65.9332    5183(72)          5195.1978         4850.4922       
  3047    65.9532    5295(73)          5219.3013         4850.4917       
  3048    65.9732    5074(71)          5248.2559         4849.4907       
  3049    65.9932    5271(73)          5283.7446         4849.4902       
  3050    66.0132    5302(73)          5325.2578         4850.4897       
  3051    66.0332    5409(74)          5369.8872         4850.4888       
  3052    66.0532    5366(73)          5416.3384         4849.4883       
  3053    66.0732    5324(73)          5464.6504         4849.4878       
  3054    66.0932    5469(74)          5511.2383         4849.4873       
  3055    66.1132    5541(74)          5553.7744         4850.4873       
  3056    66.1332    5638(75)          5586.6060         4850.4863       
  3057    66.1532    5820(76)          5605.7090         4849.4858       
  3058    66.1732    5649(75)          5611.9492         4849.4854       
  3059    66.1932    5475(74)          5603.1582         4849.4854       
  3060    66.2132    5795(76)          5581.7637         4850.4849       
  3061    66.2332    5467(74)          5547.6812         4849.4844       
  3062    66.2532    5616(75)          5507.5703         4849.4844       
  3063    66.2732    5592(75)          5463.9692         4849.4839       
  3064    66.2932    5375(73)          5419.8369         4849.4839       
  3065    66.3132    5296(73)          5378.4346         4850.4834       
  3066    66.3332    5398(73)          5338.2544         4849.4834       
  3067    66.3532    5239(72)          5303.2852         4849.4834       
  3068    66.3732    5170(72)          5273.0737         4849.4834       
  3069    66.3932    5294(73)          5247.9980         4849.4834       
  3070    66.4132    5283(73)          5228.2974         4849.4829       
  3071    66.4332    5215(72)          5214.2100         4849.4829       
  3072    66.4532    5060(71)          5205.9102         4849.4834       
  3073    66.4732    5214(72)          5203.5049         4849.4834       
  3074    66.4932    5018(71)          5207.9868         4850.4834       
  3075    66.5132    5198(72)          5216.2021         4849.4834       
  3076    66.5332    5214(72)          5230.8174         4849.4834       
  3077    66.5532    5311(73)          5250.3223         4849.4834       
  3078    66.5732    5312(73)          5273.9429         4849.4839       
  3079    66.5932    5208(72)          5300.6270         4849.4839       
  3080    66.6132    5341(73)          5328.8926         4849.4844       
  3081    66.6332    5411(74)          5356.8169         4849.4844       
  3082    66.6532    5290(73)          5382.0127         4849.4849       
  3083    66.6732    5453(74)          5402.7690         4850.4854       
  3084    66.6932    5217(72)          5415.4438         4849.4858       
  3085    66.7132    5378(73)          5417.2539         4849.4858       
  3086    66.7332    5389(73)          5408.3701         4849.4863       
  3087    66.7532    5520(74)          5389.4502         4849.4863       
  3088    66.7732    5498(74)          5362.2495         4849.4873       
  3089    66.7932    5153(72)          5329.1548         4849.4878       
  3090    66.8132    5119(72)          5292.6201         4849.4878       
  3091    66.8332    5184(72)          5254.7070         4849.4888       
  3092    66.8532    5090(71)          5218.0649         4850.4893       
  3093    66.8732    5126(72)          5180.7104         4849.4902       
  3094    66.8932    4998(71)          5146.4282         4849.4902       
  3095    66.9132    4921(70)          5114.6479         4849.4912       
  3096    66.9332    5032(71)          5085.6763         4849.4917       
  3097    66.9532    4953(70)          5059.5942         4849.4927       
  3098    66.9732    4926(70)          5036.4048         4849.4932       
  3099    66.9932    5144(72)          5016.0386         4849.4941       
  3100    67.0132    4986(71)          4997.3057         4848.4951       
  3101    67.0332    4870(70)          4980.9907         4847.4956       
  3102    67.0532    5043(71)          4966.8271         4846.4961       
  3103    67.0732    4929(70)          4953.5684         4844.4971       
  3104    67.0932    4896(70)          4942.9600         4843.4980       
  3105    67.1132    4846(70)          4933.7876         4842.4990       
  3106    67.1332    5020(71)          4925.8501         4841.5000       
  3107    67.1532    4855(70)          4918.9731         4840.5005       
  3108    67.1732    5013(71)          4912.0762         4838.5015       
  3109    67.1932    5033(71)          4906.9121         4837.5024       
  3110    67.2132    4998(71)          4902.4424         4836.5034       
  3111    67.2332    4785(69)          4898.5815         4835.5049       
  3112    67.2532    4956(70)          4894.2661         4833.5059       
  3113    67.2732    4938(70)          4891.4424         4832.5068       
  3114    67.2932    4825(69)          4889.0112         4831.5078       
  3115    67.3132    4776(69)          4887.0513         4830.5088       
  3116    67.3332    4697(69)          4884.4746         4828.5103       
  3117    67.3532    4766(69)          4883.2500         4827.5112       
  3118    67.3732    4721(69)          4881.3452         4825.5127       
  3119    67.3932    4800(69)          4881.7202         4825.5137       
  3120    67.4132    4892(70)          4881.3237         4824.5146       
  3121    67.4332    4782(69)          4879.7515         4822.5161       
  3122    67.4532    4897(70)          4879.5923         4821.5176       
  3123    67.4732    4779(69)          4878.3989         4819.5186       
  3124    67.4932    4816(69)          4879.0576         4819.5200       
  3125    67.5132    4844(70)          4878.3203         4817.5210       
  3126    67.5332    4831(70)          4877.4067         4816.5225       
  3127    67.5532    4724(69)          4875.1401         4814.5239       
  3128    67.5732    4695(69)          4873.5474         4813.5249       
  3129    67.5932    4801(69)          4871.6875         4812.5269       
  3130    67.6132    4803(69)          4869.6265         4811.5278       
  3131    67.6332    5040(71)          4867.4160         4810.5293       
  3132    67.6532    4856(70)          4864.0771         4808.5308       
  3133    67.6732    5014(71)          4861.6045         4807.5322       
  3134    67.6932    4705(69)          4859.0610         4806.5337       
  3135    67.7132    4697(69)          4856.2651         4805.5352       
  3136    67.7332    4873(70)          4852.3013         4803.5361       
  3137    67.7532    4932(70)          4849.2031         4802.5381       
  3138    67.7732    4805(69)          4845.0220         4800.5396       
  3139    67.7932    4757(69)          4842.8188         4800.5410       
  3140    67.8132    4832(70)          4838.6562         4798.5425       
  3141    67.8332    4766(69)          4835.5835         4797.5444       
  3142    67.8532    4953(70)          4831.6382         4795.5454       
  3143    67.8732    4888(70)          4828.8472         4794.5474       
  3144    67.8932    4660(68)          4826.2246         4793.5488       
  3145    67.9132    4732(69)          4823.7778         4792.5498       
  3146    67.9332    4918(70)          4821.5093         4791.5518       
  3147    67.9532    4829(69)          4818.4150         4789.5532       
  3148    67.9732    4914(70)          4816.4893         4788.5552       
  3149    67.9932    4763(69)          4813.7241         4786.5566       
  3150    68.0132    4983(71)          4812.1113         4785.5581       
  3151    68.0332    4869(70)          4810.6436         4784.5596       
  3152    68.0532    4830(69)          4809.3115         4783.5615       
  3153    68.0732    4874(70)          4807.1074         4781.5630       
  3154    68.0932    4820(69)          4806.0254         4780.5649       
  3155    68.1132    4761(69)          4805.0562         4779.5664       
  3156    68.1332    4697(69)          4803.1948         4777.5684       
  3157    68.1532    4784(69)          4802.4321         4776.5698       
  3158    68.1732    4783(69)          4801.7617         4775.5718       
  3159    68.1932    4859(70)          4801.1719         4774.5732       
  3160    68.2132    4773(69)          4799.6494         4772.5747       
  3161    68.2332    4902(70)          4799.1782         4771.5767       
  3162    68.2532    4681(68)          4797.7334         4769.5781       
  3163    68.2732    4849(70)          4796.3931         4768.5801       
  3164    68.2932    4713(69)          4794.9287         4766.5815       
  3165    68.3132    4807(69)          4794.3862         4765.5835       
  3166    68.3332    4758(69)          4793.7266         4764.5850       
  3167    68.3532    4695(69)          4792.9233         4763.5874       
  3168    68.3732    4713(69)          4792.9648         4763.5889       
  3169    68.3932    4768(69)          4790.8623         4761.5908       
  3170    68.4132    4802(69)          4789.6436         4760.5923       
  3171    68.4332    4704(69)          4787.3462         4758.5942       
  3172    68.4532    4884(70)          4785.7607         4757.5957       
  3173    68.4732    4766(69)          4783.4253         4755.5977       
  3174    68.4932    4714(69)          4782.1157         4754.5991       
  3175    68.5132    4646(68)          4779.8525         4752.6011       
  3176    68.5332    4837(70)          4779.6499         4752.6025       
  3177    68.5532    4728(69)          4778.5171         4751.6045       
  3178    68.5732    4664(68)          4778.4214         4751.6060       
  3179    68.5932    4698(69)          4778.4395         4751.6074       
  3180    68.6132    4887(70)          4777.5356         4750.6099       
  3181    68.6332    4851(70)          4777.7085         4750.6113       
  3182    68.6532    4691(68)          4776.9600         4749.6133       
  3183    68.6732    4742(69)          4777.2891         4749.6147       
  3184    68.6932    4661(68)          4776.6987         4748.6167       
  3185    68.7132    4581(68)          4777.1870         4748.6182       
  3186    68.7332    4758(69)          4776.7563         4747.6201       
  3187    68.7532    4691(68)          4776.4062         4746.6216       
  3188    68.7732    4741(69)          4777.1392         4746.6230       
  3189    68.7932    4887(70)          4776.9565         4745.6255       
  3190    68.8132    4765(69)          4777.8589         4745.6270       
  3191    68.8332    4762(69)          4777.8506         4744.6284       
  3192    68.8532    4673(68)          4778.9336         4744.6304       
  3193    68.8732    4735(69)          4779.1113         4743.6318       
  3194    68.8932    4722(69)          4779.3872         4742.6338       
  3195    68.9132    4920(70)          4780.7661         4742.6353       
  3196    68.9332    4578(68)          4781.2520         4741.6367       
  3197    68.9532    4883(70)          4781.1963         4741.6392       
  3198    68.9732    4752(69)          4781.9629         4740.6406       
  3199    68.9932    4867(70)          4783.8496         4740.6421       
  3200    69.0132    4942(70)          4784.8921         4739.6436       
  3201    69.0332    4748(69)          4786.1118         4738.6455       
  3202    69.0532    4643(68)          4788.5366         4738.6470       
  3203    69.0732    4731(69)          4790.1978         4737.6484       
  3204    69.0932    4737(69)          4793.1348         4737.6499       
  3205    69.1132    4736(69)          4795.3926         4736.6519       
  3206    69.1332    4834(70)          4798.0273         4735.6538       
  3207    69.1532    4784(69)          4802.1104         4735.6553       
  3208    69.1732    4852(70)          4804.6206         4733.6567       
  3209    69.1932    4924(70)          4809.8555         4733.6582       
  3210    69.2132    4856(70)          4814.8848         4732.6597       
  3211    69.2332    4845(70)          4821.8511         4732.6616       
  3212    69.2532    4913(70)          4828.9409         4731.6631       
  3213    69.2732    4850(70)          4837.3862         4730.6646       
  3214    69.2932    4941(70)          4848.4541         4730.6660       
  3215    69.3132    4729(69)          4860.4336         4729.6675       
  3216    69.3332    4919(70)          4875.6602         4729.6689       
  3217    69.3532    4987(71)          4892.4658         4728.6704       
  3218    69.3732    4951(70)          4913.2227         4728.6719       
  3219    69.3932    4893(70)          4935.2603         4726.6733       
  3220    69.4132    5030(71)          4961.9175         4725.6748       
  3221    69.4332    4987(71)          4993.4448         4725.6763       
  3222    69.4532    5007(71)          5028.0488         4724.6777       
  3223    69.4732    5089(71)          5067.8350         4724.6792       
  3224    69.4932    5193(72)          5110.7183         4723.6807       
  3225    69.5132    5189(72)          5158.4839         4723.6821       
  3226    69.5332    5260(73)          5207.5210         4722.6836       
  3227    69.5532    5254(72)          5259.1646         4720.6851       
  3228    69.5732    5526(74)          5313.9868         4720.6865       
  3229    69.5932    5413(74)          5367.1724         4719.6875       
  3230    69.6132    5576(75)          5418.2129         4719.6885       
  3231    69.6332    5567(75)          5462.1147         4718.6899       
  3232    69.6532    5843(76)          5496.5869         4717.6914       
  3233    69.6732    5545(74)          5518.5220         4716.6929       
  3234    69.6932    5728(76)          5525.7295         4715.6938       
  3235    69.7132    5477(74)          5518.4038         4715.6953       
  3236    69.7332    5455(74)          5495.5552         4714.6968       
  3237    69.7532    5494(74)          5461.3701         4714.6978       
  3238    69.7732    5616(75)          5415.9800         4712.6987       
  3239    69.7932    5352(73)          5365.6719         4711.7002       
  3240    69.8132    5346(73)          5313.4639         4711.7017       
  3241    69.8332    5224(72)          5259.7402         4710.7026       
  3242    69.8532    5274(73)          5208.3574         4710.7036       
  3243    69.8732    5078(71)          5157.5449         4708.7051       
  3244    69.8932    5116(72)          5112.1987         4708.7061       
  3245    69.9132    4991(71)          5069.7827         4707.7070       
  3246    69.9332    5034(71)          5031.5850         4706.7080       
  3247    69.9532    4998(71)          4997.6558         4705.7095       
  3248    69.9732    5020(71)          4967.9136         4704.7100       
  3249    69.9932    4951(70)          4943.2119         4704.7114       
  3250    70.0132    4896(70)          4921.7017         4703.7124       
  3251    70.0332    4899(70)          4903.3120         4702.7134       
  3252    70.0532    4853(70)          4888.1270         4701.7144       
  3253    70.0732    4974(71)          4875.8418         4700.7158       
  3254    70.0932    4902(70)          4867.1318         4700.7163       
  3255    70.1132    4947(70)          4858.7007         4698.7173       
  3256    70.1332    4890(70)          4854.2607         4698.7183       
  3257    70.1532    4785(69)          4850.5601         4697.7192       
  3258    70.1732    4726(69)          4847.3984         4695.7197       
  3259    70.1932    4852(70)          4847.6392         4695.7212       
  3260    70.2132    4983(71)          4848.2222         4694.7217       
  3261    70.2332    4898(70)          4851.1768         4694.7227       
  3262    70.2532    4943(70)          4853.5957         4692.7236       
  3263    70.2732    4953(70)          4859.6240         4692.7246       
  3264    70.2932    4928(70)          4866.4238         4691.7251       
  3265    70.3132    4854(70)          4874.1362         4689.7261       
  3266    70.3332    4890(70)          4885.8813         4689.7266       
  3267    70.3532    4683(68)          4898.7085         4688.7271       
  3268    70.3732    4780(69)          4913.6191         4687.7285       
  3269    70.3932    5042(71)          4930.4434         4686.7290       
  3270    70.4132    5013(71)          4950.0913         4686.7295       
  3271    70.4332    5110(71)          4969.1299         4684.7305       
  3272    70.4532    5052(71)          4990.0122         4683.7310       
  3273    70.4732    5108(71)          5012.0312         4683.7314       
  3274    70.4932    5171(72)          5031.0020         4681.7324       
  3275    70.5132    5196(72)          5049.7388         4681.7329       
  3276    70.5332    5269(73)          5063.8340         4680.7334       
  3277    70.5532    5095(71)          5072.9771         4679.7339       
  3278    70.5732    5170(72)          5076.1685         4678.7349       
  3279    70.5932    5217(72)          5071.9482         4676.7354       
  3280    70.6132    5350(73)          5063.6348         4676.7358       
  3281    70.6332    5185(72)          5049.0210         4675.7363       
  3282    70.6532    5067(71)          5030.2925         4674.7368       
  3283    70.6732    4812(69)          5008.7529         4673.7373       
  3284    70.6932    4822(69)          4985.5610         4672.7373       
  3285    70.7132    5010(71)          4961.6938         4671.7383       
  3286    70.7332    4874(70)          4937.8418         4670.7388       
  3287    70.7532    4879(70)          4914.5332         4669.7393       
  3288    70.7732    4822(69)          4892.1274         4668.7397       
  3289    70.7932    4866(70)          4871.8965         4668.7397       
  3290    70.8132    4835(70)          4851.0645         4666.7402       
  3291    70.8332    4967(70)          4832.7852         4665.7407       
  3292    70.8532    4787(69)          4816.1812         4664.7412       
  3293    70.8732    4850(70)          4801.2954         4663.7412       
  3294    70.8932    4911(70)          4789.1431         4663.7417       
  3295    70.9132    4760(69)          4776.6772         4661.7422       
  3296    70.9332    4864(70)          4767.8379         4661.7422       
  3297    70.9532    4712(69)          4758.5386         4659.7427       
  3298    70.9732    4740(69)          4751.6880         4658.7432       
  3299    70.9932    4872(70)          4746.2041         4657.7427       
  3300    71.0132    4696(69)          4742.0078         4656.7432       
  3301    71.0332    4718(69)          4740.6675         4656.7432       
  3302    71.0532    4771(69)          4738.2495         4654.7437       
  3303    71.0732    4724(69)          4738.5791         4654.7441       
  3304    71.0932    4650(68)          4737.9971         4652.7441       
  3305    71.1132    4616(68)          4739.4717         4651.7441       
  3306    71.1332    4768(69)          4741.9731         4650.7441       
  3307    71.1532    4678(68)          4745.4663         4649.7446       
  3308    71.1732    4722(69)          4749.8979         4648.7446       
  3309    71.1932    4764(69)          4755.2046         4647.7451       
  3310    71.2132    4787(69)          4761.2808         4646.7446       
  3311    71.2332    4680(68)          4767.9922         4645.7446       
  3312    71.2532    4759(69)          4775.1328         4644.7451       
  3313    71.2732    4962(70)          4782.4087         4643.7446       
  3314    71.2932    4498(67)          4789.5020         4642.7451       
  3315    71.3132    4845(70)          4795.9277         4641.7451       
  3316    71.3332    4846(70)          4801.1694         4640.7451       
  3317    71.3532    4801(69)          4803.6660         4638.7451       
  3318    71.3732    4905(70)          4805.9482         4638.7451       
  3319    71.3932    4830(69)          4803.7075         4636.7451       
  3320    71.4132    4813(69)          4800.8823         4636.7451       
  3321    71.4332    4741(69)          4793.6611         4634.7451       
  3322    71.4532    4753(69)          4786.4526         4634.7451       
  3323    71.4732    4776(69)          4775.7729         4632.7451       
  3324    71.4932    4685(68)          4765.1670         4631.7446       
  3325    71.5132    4738(69)          4754.1167         4630.7451       
  3326    71.5332    4828(69)          4743.0273         4629.7446       
  3327    71.5532    4752(69)          4732.1987         4628.7446       
  3328    71.5732    4737(69)          4721.8545         4627.7441       
  3329    71.5932    4721(69)          4712.1348         4626.7446       
  3330    71.6132    4519(67)          4703.1323         4625.7441       
  3331    71.6332    4594(68)          4694.8896         4624.7441       
  3332    71.6532    4695(69)          4687.4136         4623.7437       
  3333    71.6732    4706(69)          4680.6963         4622.7441       
  3334    71.6932    4675(68)          4674.6968         4621.7437       
  3335    71.7132    4711(69)          4669.3740         4620.7437       
  3336    71.7332    4757(69)          4664.6685         4619.7432       
  3337    71.7532    4629(68)          4660.5254         4618.7437       
  3338    71.7732    4625(68)          4655.8809         4616.7432       
  3339    71.7932    4517(67)          4653.6772         4616.7432       
  3340    71.8132    4639(68)          4649.8604         4614.7427       
  3341    71.8332    4752(69)          4648.3799         4614.7422       
  3342    71.8532    4532(67)          4646.1919         4613.7422       
  3343    71.8732    4553(67)          4644.2559         4612.7422       
  3344    71.8932    4671(68)          4642.5396         4611.7422       
  3345    71.9132    4527(67)          4642.0117         4611.7417       
  3346    71.9332    4765(69)          4640.6465         4610.7412       
  3347    71.9532    4635(68)          4639.4243         4609.7412       
  3348    71.9732    4541(67)          4638.3223         4608.7407       
  3349    71.9932    4680(68)          4638.3535         4608.7407       
  3350    72.0132    4687(68)          4636.5312         4606.7407       
  3351    72.0332    4557(68)          4636.6689         4606.7402       
  3352    72.0532    4661(68)          4635.8398         4605.7397       
  3353    72.0732    4640(68)          4636.3623         4605.7397       
  3354    72.0932    4584(68)          4634.5254         4603.7393       
  3355    72.1132    4727(69)          4634.6465         4603.7388       
  3356    72.1332    4594(68)          4633.7104         4602.7393       
  3357    72.1532    4630(68)          4632.7114         4601.7388       
  3358    72.1732    4615(68)          4631.6582         4600.7383       
  3359    72.1932    4476(67)          4631.5723         4600.7383       
  3360    72.2132    4573(68)          4630.4805         4599.7378       
  3361    72.2332    4652(68)          4629.4170         4598.7373       
  3362    72.2532    4689(68)          4629.4141         4598.7368       
  3363    72.2732    4628(68)          4628.5054         4597.7373       
  3364    72.2932    4596(68)          4627.7236         4596.7368       
  3365    72.3132    4591(68)          4627.0879         4595.7363       
  3366    72.3332    4710(69)          4627.6309         4595.7358       
  3367    72.3532    4608(68)          4626.3784         4593.7358       
  3368    72.3732    4669(68)          4627.3569         4593.7354       
  3369    72.3932    4566(68)          4627.5918         4592.7349       
  3370    72.4132    4821(69)          4629.1104         4592.7349       
  3371    72.4332    4583(68)          4629.2373         4590.7349       
  3372    72.4532    4610(68)          4631.3975         4590.7344       
  3373    72.4732    4647(68)          4633.9116         4590.7339       
  3374    72.4932    4657(68)          4634.8232         4588.7339       
  3375    72.5132    4711(69)          4638.0938         4588.7334       
  3376    72.5332    4545(67)          4640.7539         4587.7329       
  3377    72.5532    4615(68)          4643.8057         4586.7329       
  3378    72.5732    4736(69)          4647.2305         4585.7329       
  3379    72.5932    4713(69)          4651.9985         4585.7324       
  3380    72.6132    4395(66)          4657.0596         4585.7319       
  3381    72.6332    4692(68)          4660.3281         4583.7314       
  3382    72.6532    4595(68)          4665.6963         4583.7319       
  3383    72.6732    4661(68)          4670.0107         4582.7314       
  3384    72.6932    4641(68)          4674.1016         4581.7310       
  3385    72.7132    4654(68)          4675.8745         4580.7305       
  3386    72.7332    4855(70)          4680.0132         4580.7305       
  3387    72.7532    4764(69)          4683.4614         4580.7305       
  3388    72.7732    4703(69)          4684.2217         4578.7300       
  3389    72.7932    4640(68)          4685.3491         4577.7295       
  3390    72.8132    4737(69)          4685.9810         4576.7295       
  3391    72.8332    4696(69)          4686.2974         4575.7295       
  3392    72.8532    4682(68)          4687.4766         4575.7290       
  3393    72.8732    4622(68)          4687.6724         4574.7285       
  3394    72.8932    4644(68)          4687.9614         4573.7285       
  3395    72.9132    4762(69)          4688.4814         4572.7285       
  3396    72.9332    4545(67)          4690.2402         4572.7280       
  3397    72.9532    4618(68)          4692.2783         4572.7275       
  3398    72.9732    4553(67)          4692.6509         4570.7280       
  3399    72.9932    4580(68)          4695.4116         4570.7275       
  3400    73.0132    4641(68)          4698.6914         4570.7271       
  3401    73.0332    4767(69)          4700.5845         4568.7271       
  3402    73.0532    4633(68)          4705.1733         4568.7271       
  3403    73.0732    4606(68)          4710.5005         4568.7266       
  3404    73.0932    4710(69)          4715.5601         4567.7266       
  3405    73.1132    4810(69)          4721.2686         4566.7266       
  3406    73.1332    4638(68)          4728.4492         4566.7261       
  3407    73.1532    4603(68)          4734.8350         4565.7261       
  3408    73.1732    4744(69)          4741.0420         4564.7261       
  3409    73.1932    4688(68)          4747.6016         4564.7261       
  3410    73.2132    4692(68)          4751.9697         4563.7256       
  3411    73.2332    4747(69)          4754.6118         4562.7256       
  3412    73.2532    4677(68)          4756.0127         4562.7256       
  3413    73.2732    4791(69)          4754.0195         4561.7251       
  3414    73.2932    4806(69)          4750.5391         4561.7256       
  3415    73.3132    4520(67)          4743.7852         4560.7251       
  3416    73.3332    4624(68)          4736.1631         4560.7256       
  3417    73.3532    4673(68)          4726.1914         4559.7251       
  3418    73.3732    4560(68)          4715.3984         4558.7251       
  3419    73.3932    4835(70)          4705.2798         4558.7251       
  3420    73.4132    4810(69)          4694.2334         4557.7251       
  3421    73.4332    4684(68)          4684.5835         4557.7246       
  3422    73.4532    4816(69)          4674.5601         4556.7251       
  3423    73.4732    4642(68)          4666.3193         4556.7251       
  3424    73.4932    4739(69)          4658.0840         4555.7251       
  3425    73.5132    4605(68)          4650.6807         4554.7251       
  3426    73.5332    4636(68)          4645.2451         4554.7251       
  3427    73.5532    4582(68)          4640.7632         4554.7251       
  3428    73.5732    4823(69)          4635.2031         4552.7256       
  3429    73.5932    4534(67)          4632.5063         4552.7251       
  3430    73.6132    4663(68)          4630.6001         4552.7251       
  3431    73.6332    4644(68)          4629.3975         4552.7256       
  3432    73.6532    4687(68)          4626.9414         4551.7251       
  3433    73.6732    4689(68)          4625.8306         4550.7256       
  3434    73.6932    4609(68)          4626.0767         4550.7256       
  3435    73.7132    4532(67)          4625.5522         4549.7261       
  3436    73.7332    4559(68)          4626.1382         4549.7256       
  3437    73.7532    4507(67)          4626.7417         4549.7261       
  3438    73.7732    4512(67)          4627.3066         4549.7261       
  3439    73.7932    4728(69)          4625.8276         4547.7266       
  3440    73.8132    4647(68)          4626.3491         4547.7266       
  3441    73.8332    4634(68)          4626.8955         4547.7266       
  3442    73.8532    4671(68)          4626.6963         4546.7271       
  3443    73.8732    4670(68)          4627.8589         4546.7271       
  3444    73.8932    4797(69)          4629.5063         4546.7275       
  3445    73.9132    4674(68)          4630.7832         4545.7275       
  3446    73.9332    4584(68)          4632.8296         4544.7280       
  3447    73.9532    4649(68)          4636.7866         4544.7285       
  3448    73.9732    4623(68)          4641.7939         4544.7280       
  3449    73.9932    4697(69)          4646.9854         4543.7285       
  3450    74.0132    4586(68)          4654.4966         4543.7285       
  3451    74.0332    4637(68)          4663.4561         4543.7290       
  3452    74.0532    4544(67)          4672.9683         4542.7295       
  3453    74.0732    4699(69)          4685.1323         4542.7295       
  3454    74.0932    4777(69)          4699.0308         4542.7300       
  3455    74.1132    4753(69)          4714.7192         4542.7305       
  3456    74.1332    4642(68)          4730.1997         4540.7305       
  3457    74.1532    4709(69)          4749.4512         4540.7310       
  3458    74.1732    4738(69)          4770.3604         4540.7314       
  3459    74.1932    4930(70)          4791.8174         4539.7319       
  3460    74.2132    4809(69)          4815.4009         4539.7324       
  3461    74.2332    4921(70)          4839.7446         4539.7329       
  3462    74.2532    4924(70)          4863.2310         4538.7334       
  3463    74.2732    4844(70)          4887.0718         4538.7334       
  3464    74.2932    4895(70)          4909.2817         4538.7339       
  3465    74.3132    5071(71)          4928.6938         4538.7344       
  3466    74.3332    4974(71)          4943.1187         4537.7349       
  3467    74.3532    5237(72)          4953.4155         4537.7354       
  3468    74.3732    5122(72)          4957.7646         4537.7358       
  3469    74.3932    5253(72)          4954.7710         4536.7363       
  3470    74.4132    5030(71)          4946.5703         4536.7368       
  3471    74.4332    5188(72)          4932.8018         4536.7378       
  3472    74.4532    4996(71)          4914.4629         4536.7378       
  3473    74.4732    5048(71)          4891.7324         4535.7383       
  3474    74.4932    4953(70)          4867.8286         4535.7388       
  3475    74.5132    4758(69)          4842.7695         4535.7397       
  3476    74.5332    4784(69)          4817.5962         4535.7402       
  3477    74.5532    4801(69)          4792.9404         4535.7407       
  3478    74.5732    4765(69)          4769.3447         4535.7412       
  3479    74.5932    4829(69)          4746.1641         4534.7417       
  3480    74.6132    4636(68)          4725.6230         4534.7422       
  3481    74.6332    4603(68)          4706.8931         4534.7432       
  3482    74.6532    4714(69)          4689.9517         4534.7437       
  3483    74.6732    4716(69)          4673.8237         4533.7446       
  3484    74.6932    4670(68)          4660.4331         4533.7451       
  3485    74.7132    4567(68)          4648.6948         4533.7456       
  3486    74.7332    4615(68)          4637.4824         4532.7461       
  3487    74.7532    4678(68)          4629.6719         4533.7466       
  3488    74.7732    4671(68)          4622.1255         4533.7476       
  3489    74.7932    4545(67)          4615.7065         4533.7480       
  3490    74.8132    4614(68)          4609.2964         4532.7490       
  3491    74.8332    4618(68)          4604.7749         4532.7495       
  3492    74.8532    4700(69)          4601.0449         4532.7505       
  3493    74.8732    4439(67)          4597.0166         4531.7510       
  3494    74.8932    4574(68)          4595.6201         4532.7520       
  3495    74.9132    4426(67)          4593.7969         4532.7524       
  3496    74.9332    4506(67)          4591.5063         4531.7534       
  3497    74.9532    4612(68)          4590.7178         4531.7544       
  3498    74.9732    4690(68)          4590.4150         4531.7549       
  3499    74.9932    4623(68)          4591.5962         4532.7559       
  3500    75.0132    4701(69)          4591.2681         4531.7563       
  3501    75.0332    4561(68)          4592.4487         4531.7573       
  3502    75.0532    4723(69)          4593.1660         4530.7583       
  3503    75.0732    4613(68)          4593.4512         4528.7588       
  3504    75.0932    4477(67)          4596.3667         4528.7598       
  3505    75.1132    4501(67)          4598.9131         4527.7603       
  3506    75.1332    4524(67)          4601.1528         4525.7612       
  3507    75.1532    4557(68)          4605.1304         4524.7622       
  3508    75.1732    4584(68)          4610.8828         4524.7627       
  3509    75.1932    4520(67)          4615.4341         4522.7637       
  3510    75.2132    4476(67)          4621.7998         4521.7646       
  3511    75.2332    4501(67)          4628.9839         4520.7651       
  3512    75.2532    4571(68)          4636.9653         4519.7661       
  3513    75.2732    4679(68)          4645.6758         4518.7671       
  3514    75.2932    4781(69)          4655.0366         4517.7681       
  3515    75.3132    4812(69)          4663.8862         4515.7686       
  3516    75.3332    4691(68)          4675.0771         4515.7695       
  3517    75.3532    4557(68)          4685.3350         4514.7705       
  3518    75.3732    4768(69)          4694.3613         4512.7715       
  3519    75.3932    4493(67)          4704.7905         4512.7720       
  3520    75.4132    4609(68)          4713.2446         4511.7729       
  3521    75.4332    4743(69)          4719.3242         4509.7744       
  3522    75.4532    4747(69)          4724.6724         4508.7754       
  3523    75.4732    4722(69)          4729.0054         4508.7759       
  3524    75.4932    4702(69)          4729.1567         4506.7769       
  3525    75.5132    4644(68)          4729.1191         4506.7778       
  3526    75.5332    4723(69)          4727.0571         4506.7788       
  3527    75.5532    4570(68)          4721.2959         4504.7798       
  3528    75.5732    4567(68)          4715.2793         4503.7803       
  3529    75.5932    4818(69)          4709.5015         4503.7812       
  3530    75.6132    4681(68)          4701.4478         4501.7822       
  3531    75.6332    4603(68)          4694.5557         4500.7832       
  3532    75.6532    4690(68)          4689.1714         4500.7842       
  3533    75.6732    4671(68)          4682.6206         4498.7847       
  3534    75.6932    4591(68)          4678.9346         4498.7856       
  3535    75.7132    4604(68)          4675.2534         4497.7866       
  3536    75.7332    4720(69)          4671.5654         4495.7876       
  3537    75.7532    4636(68)          4670.7798         4495.7886       
  3538    75.7732    4602(68)          4669.7227         4494.7896       
  3539    75.7932    4540(67)          4668.1421         4492.7905       
  3540    75.8132    4623(68)          4668.7134         4492.7915       
  3541    75.8332    4636(68)          4668.0864         4491.7925       
  3542    75.8532    4587(68)          4666.8105         4490.7935       
  3543    75.8732    4560(68)          4664.5225         4489.7944       
  3544    75.8932    4635(68)          4660.9414         4488.7949       
  3545    75.9132    4424(67)          4655.9067         4487.7959       
  3546    75.9332    4474(67)          4649.4141         4486.7969       
  3547    75.9532    4556(67)          4642.6001         4486.7979       
  3548    75.9732    4745(69)          4632.7070         4484.7988       
  3549    75.9932    4667(68)          4622.8989         4483.7998       
  3550    76.0132    4720(69)          4613.7715         4483.8003       
  3551    76.0332    4545(67)          4602.4751         4481.8013       
  3552    76.0532    4567(68)          4593.2441         4481.8022       
  3553    76.0732    4500(67)          4583.2778         4480.8032       
  3554    76.0932    4509(67)          4573.7148         4479.8042       
  3555    76.1132    4612(68)          4564.6514         4478.8052       
  3556    76.1332    4532(67)          4556.1572         4477.8057       
  3557    76.1532    4517(67)          4548.6465         4476.8066       
  3558    76.1732    4637(68)          4541.3735         4475.8076       
  3559    76.1932    4546(67)          4535.6890         4475.8086       
  3560    76.2132    4456(67)          4528.5688         4473.8096       
  3561    76.2332    4468(67)          4524.0459         4473.8105       
  3562    76.2532    4575(68)          4519.0679         4472.8110       
  3563    76.2732    4426(67)          4514.5791         4471.8120       
  3564    76.2932    4508(67)          4510.5332         4470.8125       
  3565    76.3132    4522(67)          4506.8916         4469.8135       
  3566    76.3332    4500(67)          4503.6079         4468.8145       
  3567    76.3532    4287(65)          4500.6436         4467.8149       
  3568    76.3732    4449(67)          4498.9604         4467.8159       
  3569    76.3932    4396(66)          4495.5259         4465.8169       
  3570    76.4132    4592(68)          4494.3091         4465.8179       
  3571    76.4332    4377(66)          4492.2852         4464.8184       
  3572    76.4532    4452(67)          4490.4336         4463.8193       
  3573    76.4732    4538(67)          4488.7363         4462.8198       
  3574    76.4932    4564(68)          4488.1821         4462.8208       
  3575    76.5132    4611(68)          4485.7607         4460.8213       
  3576    76.5332    4456(67)          4485.0664         4460.8223       
  3577    76.5532    4532(67)          4483.9048         4459.8232       
  3578    76.5732    4609(68)          4481.8701         4457.8242       
  3579    76.5932    4603(68)          4481.9644         4457.8242       
  3580    76.6132    4604(68)          4481.1948         4456.8252       
  3581    76.6332    4539(67)          4480.5679         4455.8262       
  3582    76.6532    4333(66)          4480.0913         4454.8267       
  3583    76.6732    4621(68)          4480.7744         4454.8271       
  3584    76.6932    4629(68)          4479.6270         4452.8281       
  3585    76.7132    4526(67)          4480.6562         4452.8286       
  3586    76.7332    4386(66)          4480.8706         4451.8296       
  3587    76.7532    4417(66)          4481.2749         4450.8301       
  3588    76.7732    4560(68)          4481.8716         4449.8306       
  3589    76.7932    4533(67)          4483.6616         4449.8315       
  3590    76.8132    4523(67)          4483.6650         4447.8315       
  3591    76.8332    4447(67)          4486.1445         4447.8325       
  3592    76.8532    4478(67)          4487.4531         4446.8335       
  3593    76.8732    4682(68)          4488.8867         4445.8335       
  3594    76.8932    4580(68)          4490.4023         4444.8345       
  3595    76.9132    4535(67)          4492.9424         4444.8350       
  3596    76.9332    4471(67)          4493.4302         4442.8354       
  3597    76.9532    4491(67)          4496.7729         4443.8359       
  3598    76.9732    4488(67)          4497.8628         4442.8364       
  3599    76.9932    4443(67)          4498.5825         4441.8369       
  3600    77.0132    4457(67)          4500.8228         4442.8374       
  3601    77.0332    4651(68)          4500.4951         4441.8379       
  3602    77.0532    4602(68)          4500.5488         4441.8389       
  3603    77.0732    4475(67)          4499.9155         4441.8389       
  3604    77.0932    4448(67)          4498.7769         4441.8398       
  3605    77.1132    4516(67)          4496.1636         4440.8398       
  3606    77.1332    4443(67)          4495.1636         4441.8408       
  3607    77.1532    4599(68)          4492.1128         4440.8408       
  3608    77.1732    4460(67)          4489.7173         4440.8408       
  3609    77.1932    4495(67)          4487.2817         4440.8418       
  3610    77.2132    4517(67)          4484.8882         4440.8418       
  3611    77.2332    4475(67)          4481.6030         4439.8428       
  3612    77.2532    4416(66)          4479.4761         4439.8428       
  3613    77.2732    4619(68)          4477.5449         4439.8428       
  3614    77.2932    4225(65)          4474.8374         4438.8438       
  3615    77.3132    4420(66)          4474.3706         4439.8438       
  3616    77.3332    4371(66)          4472.1572         4438.8438       
  3617    77.3532    4578(68)          4471.2061         4438.8447       
  3618    77.3732    4425(67)          4470.5186         4438.8447       
  3619    77.3932    4525(67)          4470.0962         4438.8447       
  3620    77.4132    4473(67)          4468.9365         4437.8452       
  3621    77.4332    4586(68)          4469.0327         4437.8452       
  3622    77.4532    4418(66)          4469.3887         4437.8457       
  3623    77.4732    4646(68)          4468.9941         4436.8457       
  3624    77.4932    4540(67)          4470.8774         4437.8457       
  3625    77.5132    4388(66)          4470.9634         4436.8462       
  3626    77.5332    4621(68)          4473.2773         4437.8462       
  3627    77.5532    4634(68)          4473.8120         4436.8467       
  3628    77.5732    4621(68)          4474.5571         4435.8467       
  3629    77.5932    4578(68)          4477.5044         4436.8467       
  3630    77.6132    4539(67)          4478.6465         4435.8467       
  3631    77.6332    4483(67)          4480.9731         4435.8467       
  3632    77.6532    4443(67)          4483.4775         4435.8472       
  3633    77.6732    4384(66)          4485.1460         4434.8472       
  3634    77.6932    4538(67)          4487.9922         4434.8472       
  3635    77.7132    4495(67)          4490.3159         4434.8472       
  3636    77.7332    4597(68)          4493.3872         4434.8472       
  3637    77.7532    4467(67)          4495.1631         4433.8472       
  3638    77.7732    4518(67)          4498.4014         4433.8472       
  3639    77.7932    4568(68)          4501.6846         4433.8472       
  3640    77.8132    4411(66)          4504.2637         4432.8472       
  3641    77.8332    4534(67)          4508.6899         4433.8472       
  3642    77.8532    4525(67)          4511.2476         4432.8467       
  3643    77.8732    4504(67)          4513.9971         4431.8467       
  3644    77.8932    4554(67)          4518.9956         4432.8462       
  3645    77.9132    4435(67)          4522.2998         4431.8462       
  3646    77.9332    4718(69)          4525.9434         4430.8462       
  3647    77.9532    4504(67)          4531.9419         4431.8462       
  3648    77.9732    4558(68)          4537.2871         4431.8462       
  3649    77.9932    4707(69)          4541.9180         4430.8462       
  3650    78.0132    4758(69)          4548.7539         4431.8452       
  3651    78.0332    4701(69)          4553.6582         4430.8452       
  3652    78.0532    4522(67)          4558.4512         4429.8452       
  3653    78.0732    4521(67)          4564.9189         4430.8452       
  3654    78.0932    4655(68)          4568.7412         4429.8442       
  3655    78.1132    4542(67)          4571.6523         4428.8442       
  3656    78.1332    4519(67)          4575.3677         4429.8442       
  3657    78.1532    4603(68)          4575.6572         4428.8438       
  3658    78.1732    4630(68)          4574.3784         4427.8433       
  3659    78.1932    4476(67)          4573.5122         4428.8433       
  3660    78.2132    4529(67)          4569.1426         4427.8428       
  3661    78.2332    4499(67)          4563.4507         4426.8423       
  3662    78.2532    4496(67)          4557.6846         4426.8418       
  3663    78.2732    4495(67)          4551.1143         4426.8413       
  3664    78.2932    4615(68)          4543.0049         4425.8413       
  3665    78.3132    4494(67)          4535.6079         4425.8408       
  3666    78.3332    4549(67)          4528.1313         4425.8403       
  3667    78.3532    4530(67)          4519.7583         4424.8398       
  3668    78.3732    4693(69)          4512.6260         4424.8394       
  3669    78.3932    4570(68)          4504.8481         4423.8389       
  3670    78.4132    4445(67)          4498.5000         4423.8384       
  3671    78.4332    4515(67)          4492.6401         4423.8379       
  3672    78.4532    4423(67)          4486.2993         4422.8374       
  3673    78.4732    4574(68)          4480.4917         4421.8369       
  3674    78.4932    4397(66)          4476.2202         4421.8359       
  3675    78.5132    4363(66)          4472.4736         4421.8359       
  3676    78.5332    4358(66)          4468.2949         4420.8350       
  3677    78.5532    4423(67)          4465.5884         4420.8350       
  3678    78.5732    4508(67)          4462.2734         4419.8340       
  3679    78.5932    4531(67)          4459.3691         4418.8330       
  3680    78.6132    4332(66)          4458.8379         4419.8330       
  3681    78.6332    4609(68)          4456.6382         4418.8320       
  3682    78.6532    4499(67)          4454.7290         4417.8315       
  3683    78.6732    4686(68)          4454.0659         4417.8306       
  3684    78.6932    4461(67)          4452.6055         4416.8301       
  3685    78.7132    4379(66)          4451.3027         4415.8296       
  3686    78.7332    4450(67)          4452.1123         4416.8286       
  3687    78.7532    4478(67)          4450.9946         4415.8281       
  3688    78.7732    4371(66)          4449.9106         4414.8276       
  3689    78.7932    4490(67)          4449.8306         4414.8267       
  3690    78.8132    4261(65)          4448.7324         4413.8257       
  3691    78.8332    4461(67)          4447.5732         4412.8247       
  3692    78.8532    4554(67)          4447.4141         4412.8247       
  3693    78.8732    4255(65)          4448.1284         4413.8237       
  3694    78.8932    4450(67)          4446.9214         4412.8228       
  3695    78.9132    4430(67)          4446.7080         4412.8223       
  3696    78.9332    4512(67)          4445.5015         4411.8213       
  3697    78.9532    4493(67)          4445.0098         4411.8203       
  3698    78.9732    4546(67)          4444.8726         4411.8193       
  3699    78.9932    4446(67)          4443.7954         4410.8184       
  3700    79.0132    4594(68)          4444.1602         4410.8184       
  3701    79.0332    4404(66)          4444.2690         4410.8174       
  3702    79.0532    4475(67)          4443.5005         4409.8164       
  3703    79.0732    4525(67)          4443.8745         4409.8154       
  3704    79.0932    4411(66)          4443.4087         4408.8145       
  3705    79.1132    4429(67)          4443.1191         4407.8135       
  3706    79.1332    4386(66)          4444.0181         4407.8130       
  3707    79.1532    4390(66)          4444.1152         4406.8120       
  3708    79.1732    4435(67)          4445.4409         4406.8110       
  3709    79.1932    4279(65)          4446.9492         4406.8101       
  3710    79.2132    4425(67)          4447.6782         4405.8091       
  3711    79.2332    4420(66)          4450.5933         4406.8081       
  3712    79.2532    4372(66)          4451.6968         4405.8071       
  3713    79.2732    4343(66)          4452.9727         4404.8066       
  3714    79.2932    4222(65)          4455.3965         4404.8057       
  3715    79.3132    4402(66)          4457.9351         4404.8047       
  3716    79.3332    4309(66)          4459.5508         4403.8037       
  3717    79.3532    4414(66)          4462.1963         4403.8027       
  3718    79.3732    4496(67)          4463.5303         4402.8018       
  3719    79.3932    4500(67)          4466.1074         4402.8008       
  3720    79.4132    4466(67)          4468.5718         4402.7998       
  3721    79.4332    4520(67)          4469.9702         4401.7983       
  3722    79.4532    4512(67)          4472.2715         4401.7974       
  3723    79.4732    4455(67)          4474.5146         4401.7969       
  3724    79.4932    4387(66)          4475.7432         4400.7959       
  3725    79.5132    4568(68)          4478.0151         4400.7949       
  3726    79.5332    4578(68)          4480.3877         4400.7939       
  3727    79.5532    4569(68)          4481.9189         4399.7930       
  3728    79.5732    4527(67)          4484.6602         4399.7920       
  3729    79.5932    4412(66)          4486.6616         4398.7910       
  3730    79.6132    4457(67)          4488.9751         4397.7900       
  3731    79.6332    4519(67)          4492.6465         4397.7886       
  3732    79.6532    4382(66)          4495.7275         4396.7876       
  3733    79.6732    4432(67)          4500.2588         4396.7866       
  3734    79.6932    4395(66)          4505.2759         4396.7856       
  3735    79.7132    4492(67)          4509.7915         4395.7847       
  3736    79.7332    4472(67)          4515.8027         4395.7842       
  3737    79.7532    4521(67)          4522.2666         4395.7832       
  3738    79.7732    4459(67)          4527.1118         4393.7822       
  3739    79.7932    4507(67)          4534.2251         4393.7808       
  3740    79.8132    4498(67)          4540.4365         4392.7798       
  3741    79.8332    4393(66)          4547.5366         4392.7788       
  3742    79.8532    4436(67)          4554.2529         4392.7778       
  3743    79.8732    4699(69)          4558.2832         4390.7769       
  3744    79.8932    4671(68)          4563.2964         4390.7759       
  3745    79.9132    4462(67)          4566.9814         4390.7749       
  3746    79.9332    4539(67)          4568.0728         4389.7734       
  3747    79.9532    4543(67)          4568.4072         4389.7729       
  3748    79.9732    4443(67)          4566.9370         4389.7720       
  3749    79.9932    4594(68)          4561.7505         4387.7710       
  3750    80.0132    4474(67)          4557.0483         4387.7700       
  3751    80.0332    4502(67)          4550.1187         4386.7690       
  3752    80.0532    4461(67)          4543.2842         4386.7681       
  3753    80.0732    4580(68)          4534.8804         4385.7666       
  3754    80.0932    4451(67)          4526.2124         4384.7661       
  3755    80.1132    4603(68)          4518.5439         4384.7651       
  3756    80.1332    4595(68)          4511.1421         4384.7642       
  3757    80.1532    4378(66)          4502.1709         4382.7632       
  3758    80.1732    4591(68)          4495.6875         4382.7622       
  3759    80.1932    4425(67)          4489.8672         4382.7612       
  3760    80.2132    4511(67)          4483.7852         4381.7607       
  3761    80.2332    4434(67)          4478.5063         4380.7593       
  3762    80.2532    4387(66)          4474.0806         4379.7583       
  3763    80.2732    4563(68)          4471.5381         4379.7573       
  3764    80.2932    4654(68)          4468.8989         4378.7563       
  3765    80.3132    4411(66)          4467.1768         4377.7559       
  3766    80.3332    4537(67)          4467.3721         4377.7549       
  3767    80.3532    4493(67)          4468.5000         4377.7539       
  3768    80.3732    4609(68)          4468.5112         4375.7534       
  3769    80.3932    4559(68)          4471.4209         4375.7524       
  3770    80.4132    4361(66)          4475.1699         4375.7515       
  3771    80.4332    4395(66)          4477.7388         4373.7505       
  3772    80.4532    4573(68)          4483.0840         4373.7500       
  3773    80.4732    4475(67)          4488.1489         4372.7490       
  3774    80.4932    4623(68)          4493.8564         4371.7480       
  3775    80.5132    4509(67)          4501.1167         4371.7476       
  3776    80.5332    4493(67)          4507.8027         4370.7466       
  3777    80.5532    4428(67)          4514.7681         4369.7456       
  3778    80.5732    4526(67)          4522.8174         4369.7451       
  3779    80.5932    4499(67)          4529.7261         4368.7441       
  3780    80.6132    4492(67)          4536.1270         4367.7437       
  3781    80.6332    4522(67)          4542.9595         4367.7427       
  3782    80.6532    4636(68)          4546.8438         4365.7422       
  3783    80.6732    4632(68)          4551.5435         4365.7412       
  3784    80.6932    4578(68)          4553.8867         4364.7402       
  3785    80.7132    4686(68)          4554.8096         4363.7397       
  3786    80.7332    4621(68)          4555.3560         4363.7388       
  3787    80.7532    4670(68)          4553.6714         4362.7383       
  3788    80.7732    4584(68)          4550.9780         4361.7373       
  3789    80.7932    4527(67)          4548.5391         4361.7368       
  3790    80.8132    4739(69)          4543.6265         4359.7368       
  3791    80.8332    4619(68)          4540.4814         4359.7358       
  3792    80.8532    4457(67)          4537.3081         4359.7354       
  3793    80.8732    4508(67)          4532.2480         4357.7344       
  3794    80.8932    4553(67)          4529.3857         4357.7339       
  3795    80.9132    4542(67)          4524.7422         4355.7334       
  3796    80.9332    4437(67)          4522.2856         4355.7329       
  3797    80.9532    4458(67)          4518.9336         4354.7324       
  3798    80.9732    4651(68)          4515.5669         4353.7319       
  3799    80.9932    4628(68)          4513.0483         4353.7310       
  3800    81.0132    4589(68)          4509.2412         4352.7310       
  3801    81.0332    4578(68)          4505.0342         4351.7305       
  3802    81.0532    4513(67)          4500.3564         4350.7300       
  3803    81.0732    4539(67)          4496.1997         4350.7290       
  3804    81.0932    4527(67)          4489.6128         4348.7290       
  3805    81.1132    4434(67)          4484.6919         4348.7285       
  3806    81.1332    4618(68)          4478.5732         4347.7280       
  3807    81.1532    4491(67)          4472.4023         4346.7280       
  3808    81.1732    4550(67)          4467.5923         4346.7275       
  3809    81.1932    4443(67)          4460.7466         4344.7271       
  3810    81.2132    4390(66)          4456.2407         4344.7266       
  3811    81.2332    4444(67)          4451.1519         4343.7261       
  3812    81.2532    4386(66)          4446.5635         4342.7261       
  3813    81.2732    4348(66)          4442.5098         4341.7256       
  3814    81.2932    4346(66)          4440.0161         4341.7256       
  3815    81.3132    4507(67)          4437.0952         4340.7251       
  3816    81.3332    4363(66)          4434.7446         4339.7251       
  3817    81.3532    4531(67)          4432.9546         4338.7246       
  3818    81.3732    4335(66)          4431.7109         4337.7246       
  3819    81.3932    4355(66)          4431.9956         4337.7241       
  3820    81.4132    4593(68)          4430.7959         4335.7241       
  3821    81.4332    4420(66)          4432.0400         4335.7241       
  3822    81.4532    4419(66)          4432.8311         4334.7241       
  3823    81.4732    4550(67)          4434.1084         4333.7241       
  3824    81.4932    4413(66)          4435.8521         4332.7236       
  3825    81.5132    4388(66)          4439.0400         4332.7236       
  3826    81.5332    4442(67)          4440.6328         4330.7241       
  3827    81.5532    4542(67)          4444.6035         4330.7236       
  3828    81.5732    4474(67)          4446.8218         4328.7236       
  3829    81.5932    4486(67)          4451.2090         4328.7236       
  3830    81.6132    4347(66)          4454.6602         4327.7241       
  3831    81.6332    4453(67)          4458.0181         4326.7236       
  3832    81.6532    4389(66)          4462.1201         4326.7236       
  3833    81.6732    4649(68)          4464.7793         4325.7241       
  3834    81.6932    4389(66)          4466.8086         4324.7241       
  3835    81.7132    4518(67)          4468.0225         4323.7241       
  3836    81.7332    4399(66)          4469.2676         4323.7241       
  3837    81.7532    4516(67)          4467.4341         4321.7241       
  3838    81.7732    4366(66)          4466.4775         4321.7246       
  3839    81.7932    4577(68)          4461.4219         4318.7246       
  3840    81.8132    4421(66)          4458.0635         4318.7251       
  3841    81.8332    4465(67)          4453.4829         4317.7256       
  3842    81.8532    4372(66)          4447.9048         4316.7256       
  3843    81.8732    4330(66)          4441.8442         4315.7261       
  3844    81.8932    4416(66)          4436.4922         4315.7261       
  3845    81.9132    4426(67)          4428.9966         4313.7266       
  3846    81.9332    4304(66)          4423.4722         4313.7271       
  3847    81.9532    4434(67)          4417.0757         4312.7271       
  3848    81.9732    4470(67)          4410.8545         4311.7275       
  3849    81.9932    4400(66)          4404.8667         4310.7280       
  3850    82.0132    4401(66)          4399.1455         4309.7280       
  3851    82.0332    4561(68)          4393.7207         4308.7285       
  3852    82.0532    4435(67)          4389.6396         4308.7290       
  3853    82.0732    4302(66)          4383.8579         4306.7300       
  3854    82.0932    4318(66)          4380.4229         4306.7305       
  3855    82.1132    4361(66)          4376.3486         4305.7310       
  3856    82.1332    4439(67)          4372.6533         4304.7310       
  3857    82.1532    4370(66)          4370.3491         4304.7314       
  3858    82.1732    4440(67)          4367.4492         4303.7324       
  3859    82.1932    4338(66)          4364.9570         4302.7329       
  3860    82.2132    4473(67)          4362.8804         4301.7334       
  3861    82.2332    4255(65)          4361.2109         4300.7344       
  3862    82.2532    4393(66)          4359.9419         4299.7349       
  3863    82.2732    4338(66)          4360.0645         4299.7354       
  3864    82.2932    4182(65)          4358.5654         4297.7363       
  3865    82.3132    4331(66)          4359.4253         4297.7368       
  3866    82.3332    4369(66)          4358.6274         4295.7373       
  3867    82.3532    4166(65)          4359.1382         4294.7383       
  3868    82.3732    4249(65)          4358.9307         4292.7393       
  3869    82.3932    4254(65)          4358.9658         4290.7402       
  3870    82.4132    4396(66)          4359.1997         4288.7407       
  3871    82.4332    4362(66)          4360.5771         4287.7417       
  3872    82.4532    4563(68)          4362.0356         4286.7422       
  3873    82.4732    4322(66)          4362.5078         4284.7432       
  3874    82.4932    4355(66)          4363.9175         4283.7441       
  3875    82.5132    4218(65)          4364.1758         4281.7451       
  3876    82.5332    4204(65)          4365.2617         4280.7456       
  3877    82.5532    4299(66)          4365.1187         4278.7471       
  3878    82.5732    4376(66)          4364.7329         4276.7480       
  3879    82.5932    4314(66)          4364.1235         4274.7485       
  3880    82.6132    4398(66)          4364.3564         4273.7500       
  3881    82.6332    4352(66)          4364.5078         4272.7510       
  3882    82.6532    4356(66)          4363.6797         4270.7515       
  3883    82.6732    4220(65)          4363.9810         4269.7529       
  3884    82.6932    4125(64)          4363.5107         4267.7539       
  3885    82.7132    4200(65)          4364.4062         4266.7554       
  3886    82.7332    4264(65)          4365.7007         4265.7559       
  3887    82.7532    4343(66)          4365.4849         4262.7573       
  3888    82.7732    4318(66)          4367.9395         4261.7583       
  3889    82.7932    4450(67)          4369.8369         4259.7598       
  3890    82.8132    4367(66)          4373.3149         4258.7603       
  3891    82.8332    4347(66)          4376.3706         4256.7617       
  3892    82.8532    4575(68)          4380.9673         4255.7627       
  3893    82.8732    4328(66)          4386.0532         4254.7642       
  3894    82.8932    4347(66)          4390.5371         4252.7651       
  3895    82.9132    4431(67)          4396.3071         4251.7666       
  3896    82.9332    4417(66)          4400.2036         4248.7681       
  3897    82.9532    4351(66)          4406.0586         4247.7690       
  3898    82.9732    4455(67)          4411.6074         4246.7705       
  3899    82.9932    4429(67)          4415.6133         4244.7720       
  3900    83.0132    4502(67)          4419.8042         4243.7729       
  3901    83.0332    4527(67)          4422.9170         4242.7744       
  3902    83.0532    4399(66)          4423.7246         4240.7759       
  3903    83.0732    4502(67)          4424.0532         4239.7773       
  3904    83.0932    4311(66)          4421.8145         4237.7783       
  3905    83.1132    4392(66)          4418.0137         4235.7798       
  3906    83.1332    4272(65)          4413.7446         4234.7812       
  3907    83.1532    4352(66)          4407.1719         4232.7827       
  3908    83.1732    4395(66)          4400.5112         4231.7837       
  3909    83.1932    4298(66)          4392.9258         4230.7852       
  3910    83.2132    4487(67)          4383.7783         4228.7866       
  3911    83.2332    4356(66)          4375.2041         4227.7881       
  3912    83.2532    4268(65)          4366.3853         4226.7896       
  3913    83.2732    4423(67)          4356.4673         4224.7910       
  3914    83.2932    4400(66)          4346.5684         4222.7925       
  3915    83.3132    4350(66)          4337.7939         4221.7939       
  3916    83.3332    4408(66)          4328.2202         4219.7954       
  3917    83.3532    4170(65)          4319.9214         4218.7969       
  3918    83.3732    4426(67)          4311.9194         4217.7983       
  3919    83.3932    4263(65)          4303.3130         4215.7998       
  3920    83.4132    4400(66)          4296.1191         4214.8018       
  3921    83.4332    4282(65)          4289.3516         4213.8032       
  3922    83.4532    4135(64)          4283.0176         4212.8047       
  3923    83.4732    4232(65)          4275.1128         4209.8062       
  3924    83.4932    4400(66)          4269.6313         4208.8081       
  3925    83.5132    4425(67)          4264.5522         4207.8096       
  3926    83.5332    4274(65)          4258.8564         4205.8110       
  3927    83.5532    4201(65)          4254.5181         4204.8125       
  3928    83.5732    4325(66)          4250.5151         4203.8145       
  3929    83.5932    4388(66)          4246.8213         4202.8159       
  3930    83.6132    4092(64)          4242.4141         4200.8174       
  3931    83.6332    4262(65)          4239.2749         4199.8193       
  3932    83.6532    4354(66)          4235.3906         4197.8208       
  3933    83.6732    4222(65)          4232.7310         4196.8223       
  3934    83.6932    4046(64)          4229.2866         4194.8237       
  3935    83.7132    4179(65)          4227.0469         4193.8257       
  3936    83.7332    4200(65)          4225.9980         4193.8271       
  3937    83.7532    4282(65)          4223.7490         4192.8286       
  3938    83.7732    4164(65)          4221.0718         4190.8306       
  3939    83.7932    4317(66)          4219.5493         4189.8320       
  3940    83.8132    4283(65)          4218.1890         4188.8340       
  3941    83.8332    4396(66)          4215.9888         4186.8354       
  3942    83.8532    4082(64)          4214.9453         4185.8369       
  3943    83.8732    4171(65)          4213.0601         4183.8389       
  3944    83.8932    4316(66)          4212.3311         4182.8403       
  3945    83.9132    4222(65)          4211.7612         4181.8418       
  3946    83.9332    4274(65)          4211.4873         4180.8442       
  3947    83.9532    4288(65)          4211.2417         4179.8457       
  3948    83.9732    4163(65)          4210.1611         4177.8477       
  3949    83.9932    4334(66)          4210.2456         4176.8491       
  3950    84.0132    4319(66)          4209.4971         4174.8506       
  3951    84.0332    4233(65)          4210.9136         4174.8525       
  3952    84.0532    4304(66)          4211.4932         4173.8540       
  3953    84.0732    4320(66)          4213.2290         4173.8555       
  3954    84.0932    4096(64)          4213.1143         4171.8574       
  3955    84.1132    4103(64)          4214.1377         4170.8589       
  3956    84.1332    4240(65)          4216.2769         4170.8608       
  3957    84.1532    4154(64)          4217.5103         4169.8623       
  3958    84.1732    4217(65)          4219.8232         4169.8638       
  3959    84.1932    4285(65)          4221.1411         4168.8657       
  3960    84.2132    4154(64)          4222.4297         4167.8672       
  3961    84.2332    4367(66)          4223.6353         4166.8691       
  3962    84.2532    4286(65)          4224.6909         4165.8706       
  3963    84.2732    4157(64)          4226.5322         4165.8721       
  3964    84.2932    4225(65)          4227.0977         4164.8745       
  3965    84.3132    4288(65)          4227.3306         4163.8760       
  3966    84.3332    4096(64)          4228.1963         4163.8779       
  3967    84.3532    4133(64)          4227.6763         4162.8794       
  3968    84.3732    4255(65)          4227.7759         4162.8809       
  3969    84.3932    4449(67)          4226.5220         4161.8828       
  3970    84.4132    4159(64)          4223.9536         4159.8843       
  3971    84.4332    4265(65)          4223.1216         4159.8857       
  3972    84.4532    4067(64)          4221.0776         4158.8872       
  3973    84.4732    4301(66)          4219.8691         4158.8887       
  3974    84.4932    4340(66)          4217.5381         4157.8906       
  3975    84.5132    4283(65)          4215.1147         4156.8921       
  3976    84.5332    4333(66)          4213.6782         4156.8936       
  3977    84.5532    4168(65)          4211.1084         4155.8955       
  3978    84.5732    4158(64)          4209.2021         4155.8970       
  3979    84.5932    4238(65)          4206.6680         4154.8984       
  3980    84.6132    4292(66)          4204.0557         4153.9004       
  3981    84.6332    4147(64)          4202.4487         4153.9019       
  3982    84.6532    4299(66)          4199.8662         4152.9033       
  3983    84.6732    4240(65)          4198.3315         4152.9048       
  3984    84.6932    4189(65)          4195.8652         4151.9062       
  3985    84.7132    4280(65)          4193.4922         4150.9077       
  3986    84.7332    4290(65)          4192.2354         4150.9092       
  3987    84.7532    4334(66)          4190.1055         4149.9111       
  3988    84.7732    4161(65)          4189.1206         4149.9126       
  3989    84.7932    4403(66)          4187.2920         4148.9141       
  3990    84.8132    4273(65)          4185.6299         4147.9150       
  3991    84.8332    4238(65)          4185.1416         4147.9170       
  3992    84.8532    4128(64)          4183.8325         4146.9185       
  3993    84.8732    4139(64)          4183.7095         4146.9199       
  3994    84.8932    3954(63)          4182.7646         4145.9209       
  3995    84.9132    4081(64)          4182.0327         4144.9224       
  3996    84.9332    4138(64)          4182.5088         4144.9243       
  3997    84.9532    4270(65)          4181.9980         4143.9253       
  3998    84.9732    4094(64)          4182.9263         4143.9268       
  3999    84.9932    4218(65)          4183.0977         4142.9282       
  4000    85.0132    4212(65)          4183.5278         4141.9292       
  4001    85.0332    4073(64)          4185.2310         4141.9307       
  4002    85.0532    4072(64)          4186.4966         4140.9316       
  4003    85.0732    4165(65)          4188.7866         4140.9336       
  4004    85.0932    4295(66)          4190.4121         4139.9351       
  4005    85.1132    4178(65)          4192.3281         4138.9360       
  4006    85.1332    4176(65)          4195.5654         4138.9375       
  4007    85.1532    4220(65)          4198.1265         4137.9385       
  4008    85.1732    4357(66)          4202.0063         4137.9399       
  4009    85.1932    4223(65)          4205.1978         4136.9409       
  4010    85.2132    4217(65)          4208.6816         4135.9419       
  4011    85.2332    4240(65)          4213.4385         4135.9434       
  4012    85.2532    4209(65)          4217.4277         4134.9443       
  4013    85.2732    4285(65)          4222.6050         4134.9458       
  4014    85.2932    4254(65)          4227.9077         4134.9468       
  4015    85.3132    4236(65)          4232.2534         4133.9478       
  4016    85.3332    4217(65)          4237.5122         4133.9492       
  4017    85.3532    4199(65)          4241.9497         4132.9502       
  4018    85.3732    4188(65)          4246.7612         4132.9507       
  4019    85.3932    4210(65)          4250.1147         4131.9521       
  4020    85.4132    4383(66)          4252.8613         4130.9531       
  4021    85.4332    4127(64)          4255.8647         4130.9541       
  4022    85.4532    4128(64)          4257.0112         4129.9551       
  4023    85.4732    4312(66)          4258.2549         4129.9561       
  4024    85.4932    4132(64)          4258.5352         4129.9575       
  4025    85.5132    4153(64)          4256.9116         4128.9580       
  4026    85.5332    4130(64)          4255.4834         4128.9590       
  4027    85.5532    4244(65)          4252.3716         4127.9600       
  4028    85.5732    4285(65)          4249.7334         4127.9609       
  4029    85.5932    4432(67)          4245.7168         4126.9614       
  4030    85.6132    4257(65)          4241.5381         4125.9624       
  4031    85.6332    4158(64)          4237.3286         4124.9634       
  4032    85.6532    4234(65)          4234.2222         4124.9639       
  4033    85.6732    4174(65)          4230.3408         4123.9648       
  4034    85.6932    4270(65)          4226.7554         4122.9658       
  4035    85.7132    4200(65)          4222.5942         4120.9663       
  4036    85.7332    4213(65)          4219.6450         4119.9673       
  4037    85.7532    4266(65)          4217.4404         4118.9673       
  4038    85.7732    4375(66)          4215.7695         4117.9683       
  4039    85.7932    4215(65)          4215.6479         4117.9688       
  4040    85.8132    4193(65)          4215.0840         4116.9697       
  4041    85.8332    4129(64)          4215.0757         4115.9697       
  4042    85.8532    4137(64)          4215.6147         4114.9707       
  4043    85.8732    4293(66)          4216.6860         4113.9712       
  4044    85.8932    4174(65)          4217.2686         4111.9722       
  4045    85.9132    4203(65)          4220.3340         4111.9722       
  4046    85.9332    4053(64)          4222.8647         4110.9731       
  4047    85.9532    4025(63)          4225.8154         4109.9731       
  4048    85.9732    4248(65)          4229.1440         4108.9736       
  4049    85.9932    4312(66)          4232.7871         4107.9746       
  4050    86.0132    4145(64)          4236.6675         4106.9746       
  4051    86.0332    4257(65)          4241.6558         4106.9751       
  4052    86.0532    4290(65)          4245.6885         4105.9756       
  4053    86.0732    4229(65)          4249.5859         4104.9756       
  4054    86.0932    4258(65)          4252.1802         4102.9761       
  4055    86.1132    4139(64)          4255.2866         4101.9766       
  4056    86.1332    4354(66)          4258.7148         4101.9771       
  4057    86.1532    4337(66)          4260.2886         4100.9771       
  4058    86.1732    4317(66)          4260.8564         4099.9771       
  4059    86.1932    4306(66)          4260.3491         4098.9771       
  4060    86.2132    4340(66)          4258.6582         4097.9775       
  4061    86.2332    4297(66)          4255.8325         4096.9780       
  4062    86.2532    4099(64)          4252.9517         4096.9780       
  4063    86.2732    4085(64)          4247.1396         4094.9780       
  4064    86.2932    4190(65)          4241.5498         4093.9780       
  4065    86.3132    4051(64)          4235.3633         4092.9783       
  4066    86.3332    4273(65)          4228.7236         4091.9783       
  4067    86.3532    4224(65)          4222.7949         4091.9783       
  4068    86.3732    4126(64)          4215.9526         4090.9785       
  4069    86.3932    4194(65)          4208.8149         4089.9783       
  4070    86.4132    4359(66)          4201.7139         4088.9783       
  4071    86.4332    4093(64)          4194.7158         4087.9780       
  4072    86.4532    4072(64)          4187.8828         4086.9780       
  4073    86.4732    4109(64)          4181.2539         4085.9780       
  4074    86.4932    4256(65)          4174.8711         4084.9778       
  4075    86.5132    4006(63)          4168.7622         4083.9778       
  4076    86.5332    4139(64)          4163.9561         4083.9775       
  4077    86.5532    4094(64)          4158.4702         4082.9773       
  4078    86.5732    4219(65)          4153.3228         4081.9771       
  4079    86.5932    4187(65)          4148.4600         4080.9771       
  4080    86.6132    4135(64)          4143.9561         4079.9766       
  4081    86.6332    4175(65)          4139.8618         4078.9763       
  4082    86.6532    4125(64)          4136.1167         4077.9761       
  4083    86.6732    4117(64)          4132.7183         4076.9756       
  4084    86.6932    3953(63)          4129.6592         4075.9756       
  4085    86.7132    4113(64)          4126.9326         4074.9751       
  4086    86.7332    4129(64)          4125.5303         4074.9746       
  4087    86.7532    4151(64)          4123.4463         4073.9741       
  4088    86.7732    4242(65)          4121.6729         4072.9739       
  4089    86.7932    4139(64)          4120.2031         4071.9734       
  4090    86.8132    4135(64)          4119.0308         4070.9729       
  4091    86.8332    4111(64)          4118.1504         4069.9724       
  4092    86.8532    4188(65)          4117.5547         4068.9719       
  4093    86.8732    3996(63)          4117.2378         4067.9712       
  4094    86.8932    3996(63)          4117.1919         4066.9707       
  4095    86.9132    4240(65)          4118.4072         4066.9702       
  4096    86.9332    4071(64)          4118.8730         4065.9695       
  4097    86.9532    4159(64)          4119.5752         4064.9690       
  4098    86.9732    4100(64)          4120.4966         4063.9680       
  4099    86.9932    4166(65)          4120.6147         4061.9675       
  4100    87.0132    4158(64)          4122.9033         4061.9668       
  4101    87.0332    4060(64)          4124.3267         4060.9663       
  4102    87.0532    4160(64)          4125.8452         4059.9653       
  4103    87.0732    4195(65)          4127.4072         4058.9646       
  4104    87.0932    4166(65)          4129.9546         4058.9641       
  4105    87.1132    4001(63)          4131.3887         4057.9631       
  4106    87.1332    4099(64)          4132.7295         4056.9624       
  4107    87.1532    4209(65)          4133.8037         4055.9614       
  4108    87.1732    4102(64)          4133.2061         4053.9607       
  4109    87.1932    4112(64)          4134.5811         4053.9597       
  4110    87.2132    4099(64)          4134.5083         4052.9590       
  4111    87.2332    4132(64)          4133.9443         4051.9580       
  4112    87.2532    4231(65)          4132.8701         4050.9573       
  4113    87.2732    4161(65)          4132.2896         4050.9563       
  4114    87.2932    3996(63)          4130.2280         4049.9551       
  4115    87.3132    4122(64)          4127.7329         4048.9543       
  4116    87.3332    4071(64)          4124.8604         4047.9534       
  4117    87.3532    4204(65)          4120.6753         4045.9524       
  4118    87.3732    4074(64)          4118.2163         4045.9512       
  4119    87.3932    4236(65)          4114.5967         4044.9502       
  4120    87.4132    4135(64)          4110.8247         4043.9492       
  4121    87.4332    4110(64)          4106.9893         4042.9482       
  4122    87.4532    4054(64)          4103.1152         4041.9470       
  4123    87.4732    4191(65)          4100.2383         4041.9460       
  4124    87.4932    4044(64)          4096.3940         4040.9448       
  4125    87.5132    3977(63)          4092.6101         4039.9436       
  4126    87.5332    4037(64)          4088.9155         4038.9426       
  4127    87.5532    4074(64)          4084.3298         4036.9414       
  4128    87.5732    4054(64)          4081.8745         4036.9402       
  4129    87.5932    4039(64)          4078.6033         4035.9390       
  4130    87.6132    4103(64)          4075.4473         4034.9375       
  4131    87.6332    4202(65)          4072.4561         4033.9365       
  4132    87.6532    4210(65)          4069.6326         4032.9353       
  4133    87.6732    4164(65)          4067.9724         4032.9341       
  4134    87.6932    4034(64)          4065.4897         4031.9329       
  4135    87.7132    4118(64)          4063.1760         4030.9316       
  4136    87.7332    4034(64)          4060.0271         4028.9302       
  4137    87.7532    4062(64)          4058.0400         4027.9290       
  4138    87.7732    4178(65)          4057.2100         4027.9277       
  4139    87.7932    4010(63)          4055.5317         4026.9263       
  4140    87.8132    4048(64)          4054.0017         4025.9248       
  4141    87.8332    4010(63)          4052.6157         4024.9236       
  4142    87.8532    4067(64)          4051.3699         4023.9224       
  4143    87.8732    3913(63)          4051.2615         4023.9209       
  4144    87.8932    4112(64)          4050.2881         4022.9194       
  4145    87.9132    4120(64)          4048.4482         4020.9180       
  4146    87.9332    4105(64)          4047.7417         4019.9167       
  4147    87.9532    4005(63)          4047.1675         4018.9150       
  4148    87.9732    3913(63)          4046.7273         4017.9138       
  4149    87.9932    3991(63)          4047.4211         4017.9124       
  4150    88.0132    4172(65)          4047.2510         4016.9109       
  4151    88.0332    4256(65)          4047.2175         4015.9094       
  4152    88.0532    4040(64)          4047.3228         4014.9080       
  4153    88.0732    4071(64)          4047.5671         4013.9065       
  4154    88.0932    4048(64)          4046.9509         4011.9050       
  4155    88.1132    4214(65)          4048.4741         4011.9036       
  4156    88.1332    4185(65)          4049.1345         4010.9021       
  4157    88.1532    4132(64)          4049.9304         4009.9004       
  4158    88.1732    4046(64)          4050.8574         4008.8992       
  4159    88.1932    4108(64)          4052.9109         4008.8975       
  4160    88.2132    4039(64)          4055.0845         4008.8960       
  4161    88.2332    4102(64)          4058.3713         4009.8945       
  4162    88.2532    4033(64)          4059.7607         4008.8931       
  4163    88.2732    4221(65)          4062.2417         4008.8914       
  4164    88.2932    3896(62)          4064.8643         4008.8899       
  4165    88.3132    4196(65)          4067.4832         4008.8884       
  4166    88.3332    4105(64)          4069.1711         4007.8867       
  4167    88.3532    4082(64)          4071.8401         4007.8850       
  4168    88.3732    4053(64)          4075.4900         4008.8838       
  4169    88.3932    4083(64)          4078.0798         4008.8821       
  4170    88.4132    4135(64)          4079.5667         4007.8806       
  4171    88.4332    4120(64)          4081.9126         4007.8789       
  4172    88.4532    3942(63)          4084.0381         4007.8772       
  4173    88.4732    4036(64)          4084.9011         4006.8757       
  4174    88.4932    3965(63)          4086.4480         4006.8743       
  4175    88.5132    4208(65)          4088.6355         4007.8726       
  4176    88.5332    4122(64)          4089.3965         4007.8711       
  4177    88.5532    4107(64)          4088.9690         4006.8694       
  4178    88.5732    4241(65)          4088.9734         4006.8679       
  4179    88.5932    4059(64)          4088.6042         4006.8662       
  4180    88.6132    3990(63)          4088.1794         4006.8645       
  4181    88.6332    4073(64)          4086.2290         4005.8633       
  4182    88.6532    4114(64)          4086.0720         4006.8616       
  4183    88.6732    4114(64)          4084.7732         4006.8599       
  4184    88.6932    4056(64)          4082.3916         4005.8584       
  4185    88.7132    4167(65)          4080.9958         4005.8567       
  4186    88.7332    4015(63)          4079.6055         4005.8552       
  4187    88.7532    4094(64)          4078.2751         4005.8535       
  4188    88.7732    4108(64)          4076.0393         4004.8518       
  4189    88.7932    4086(64)          4074.9087         4004.8503       
  4190    88.8132    4187(65)          4073.9487         4004.8486       
  4191    88.8332    3986(63)          4074.1633         4005.8472       
  4192    88.8532    3911(63)          4072.5562         4004.8457       
  4193    88.8732    4125(64)          4072.1809         4004.8442       
  4194    88.8932    4110(64)          4072.0352         4004.8425       
  4195    88.9132    4033(64)          4072.1543         4004.8411       
  4196    88.9332    4086(64)          4071.5012         4003.8394       
  4197    88.9532    4120(64)          4072.1028         4003.8379       
  4198    88.9732    4244(65)          4072.9575         4003.8362       
  4199    88.9932    4072(64)          4073.0713         4002.8347       
  4200    89.0132    4160(64)          4074.4099         4002.8333       
  4201    89.0332    3991(63)          4075.9666         4002.8318       
  4202    89.0532    4115(64)          4078.7195         4003.8301       
  4203    89.0732    4111(64)          4079.6389         4002.8286       
  4204    89.0932    4116(64)          4081.6909         4002.8271       
  4205    89.1132    4035(64)          4083.8374         4002.8254       
  4206    89.1332    4060(64)          4086.0352         4002.8242       
  4207    89.1532    4050(64)          4087.2417         4001.8228       
  4208    89.1732    4180(65)          4089.4155         4001.8210       
  4209    89.1932    3993(63)          4091.5181         4001.8196       
  4210    89.2132    4216(65)          4093.5208         4001.8181       
  4211    89.2332    4202(65)          4094.4070         4000.8167       
  4212    89.2532    4043(64)          4096.1714         4000.8152       
  4213    89.2732    4137(64)          4097.8281         4000.8137       
  4214    89.2932    4148(64)          4098.3975         3999.8125       
  4215    89.3132    4033(64)          4100.9189         4000.8108       
  4216    89.3332    4046(64)          4102.4438         4000.8093       
  4217    89.3532    4084(64)          4104.0269         4000.8081       
  4218    89.3732    4175(65)          4104.7300         3999.8066       
  4219    89.3932    4059(64)          4106.6123         3999.8052       
  4220    89.4132    4181(65)          4108.7324         3999.8040       
  4221    89.4332    4230(65)          4111.1436         3999.8025       
  4222    89.4532    4103(64)          4112.8911         3998.8010       
  4223    89.4732    4128(64)          4116.0137         3998.7998       
  4224    89.4932    4117(64)          4119.5376         3998.7983       
  4225    89.5132    4157(64)          4123.4844         3998.7971       
  4226    89.5332    4087(64)          4126.9722         3997.7957       
  4227    89.5532    4130(64)          4131.7715         3997.7944       
  4228    89.5732    3983(63)          4136.9736         3997.7932       
  4229    89.5932    4131(64)          4141.5454         3996.7917       
  4230    89.6132    4099(64)          4147.4390         3996.7905       
  4231    89.6332    4103(64)          4153.5801         3996.7893       
  4232    89.6532    4168(65)          4159.8862         3996.7881       
  4233    89.6732    3995(63)          4165.2485         3995.7869       
  4234    89.6932    4035(64)          4172.5537         3996.7854       
  4235    89.7132    4154(64)          4178.6709         3996.7844       
  4236    89.7332    4239(65)          4184.4775         3996.7832       
  4237    89.7532    4099(64)          4188.8535         3995.7820       
  4238    89.7732    4312(66)          4193.7046         3995.7808       
  4239    89.7932    4182(65)          4197.7041         3995.7795       
  4240    89.8132    4271(65)          4200.3442         3994.7786       
  4241    89.8332    4217(65)          4202.3691         3993.7773       
  4242    89.8532    4149(64)          4204.8149         3993.7764       
  4243    89.8732    4296(66)          4206.7456         3993.7751       
  4244    89.8932    4183(65)          4207.2339         3992.7742       
  4245    89.9132    4201(65)          4208.3530         3992.7729       
  4246    89.9332    4087(64)          4209.1650         3992.7720       
  4247    89.9532    4249(65)          4209.7075         3992.7710       
  4248    89.9732    4201(65)          4208.9912         3991.7698       
  4249    89.9932    4320(66)          4208.9976         3991.7688       
  4250    90.0132    4108(64)          4208.6768         3991.7678       
  4251    90.0332    4206(65)          4207.9565         3991.7668       
  4252    90.0532    4234(65)          4205.7480         3990.7661       
  4253    90.0732    4170(65)          4203.9595         3990.7649       
  4254    90.0932    4253(65)          4201.5078         3990.7639       
  4255    90.1132    4245(65)          4197.3291         3989.7629       
  4256    90.1332    4201(65)          4193.3970         3989.7622       
  4257    90.1532    4023(63)          4188.7075         3989.7612       
  4258    90.1732    4346(66)          4183.3096         3989.7605       
  4259    90.1932    4189(65)          4176.2739         3988.7595       
  4260    90.2132    4085(64)          4169.7051         3988.7585       
  4261    90.2332    4387(66)          4162.6865         3988.7581       
  4262    90.2532    4197(65)          4155.3970         3988.7573       
  4263    90.2732    4089(64)          4146.9253         3987.7563       
  4264    90.2932    4009(63)          4139.3794         3987.7556       
  4265    90.3132    4123(64)          4131.8638         3987.7549       
  4266    90.3332    3955(63)          4124.5000         3987.7542       
  4267    90.3532    3919(63)          4116.2852         3986.7534       
  4268    90.3732    4184(65)          4109.3154         3986.7527       
  4269    90.3932    4177(65)          4102.6440         3986.7520       
  4270    90.4132    4229(65)          4095.3086         3985.7512       
  4271    90.4332    4150(64)          4089.3362         3985.7507       
  4272    90.4532    4119(64)          4083.7532         3985.7500       
  4273    90.4732    4080(64)          4078.5720         3985.7495       
  4274    90.4932    4021(63)          4072.8062         3984.7490       
  4275    90.5132    4087(64)          4068.4578         3984.7483       
  4276    90.5332    3876(62)          4064.5327         3984.7478       
  4277    90.5532    4100(64)          4061.0278         3984.7473       
  4278    90.5732    4078(64)          4056.6284         3983.7466       
  4279    90.5932    4009(63)          4053.9617         3983.7461       
  4280    90.6132    4046(64)          4051.7043         3983.7456       
  4281    90.6332    4096(64)          4049.8523         3983.7451       
  4282    90.6532    4061(64)          4047.3926         3982.7446       
  4283    90.6732    3960(63)          4046.3313         3982.7444       
  4284    90.6932    4077(64)          4045.6650         3982.7439       
  4285    90.7132    4085(64)          4044.3674         3981.7432       
  4286    90.7332    4030(63)          4044.4429         3981.7432       
  4287    90.7532    4149(64)          4044.8823         3981.7427       
  4288    90.7732    4032(63)          4045.6794         3981.7424       
  4289    90.7932    3987(63)          4045.8259         3980.7419       
  4290    90.8132    4010(63)          4047.6050         3980.7417       
  4291    90.8332    3947(63)          4049.4238         3980.7412       
  4292    90.8532    3958(63)          4051.5283         3980.7410       
  4293    90.8732    4005(63)          4052.9688         3979.7407       
  4294    90.8932    4086(64)          4055.6943         3979.7405       
  4295    90.9132    3999(63)          4058.6851         3979.7402       
  4296    90.9332    4101(64)          4061.9182         3979.7400       
  4297    90.9532    4064(64)          4064.3628         3978.7397       
  4298    90.9732    4204(65)          4067.9888         3978.7395       
  4299    90.9932    4024(63)          4071.7561         3978.7395       
  4300    91.0132    4074(64)          4074.6260         3977.7393       
  4301    91.0332    4007(63)          4078.5493         3977.7393       
  4302    91.0532    3972(63)          4082.4763         3977.7393       
  4303    91.0732    4075(64)          4086.3459         3977.7390       
  4304    91.0932    4016(63)          4089.0996         3976.7390       
  4305    91.1132    4195(65)          4092.6648         3976.7388       
  4306    91.1332    4083(64)          4095.9604         3976.7388       
  4307    91.1532    3942(63)          4098.9038         3976.7388       
  4308    91.1732    4192(65)          4100.4033         3975.7388       
  4309    91.1932    3914(63)          4102.3682         3975.7385       
  4310    91.2132    4158(64)          4103.7212         3975.7385       
  4311    91.2332    4172(65)          4103.3906         3974.7388       
  4312    91.2532    4205(65)          4103.3267         3974.7388       
  4313    91.2732    4166(65)          4102.5078         3974.7388       
  4314    91.2932    4093(64)          4100.9409         3974.7388       
  4315    91.3132    4098(64)          4097.6655         3973.7390       
  4316    91.3332    4175(65)          4094.7432         3973.7390       
  4317    91.3532    4152(64)          4090.2622         3972.7393       
  4318    91.3732    4108(64)          4086.3176         3972.7393       
  4319    91.3932    3994(63)          4081.0173         3971.7395       
  4320    91.4132    4099(64)          4076.4622         3971.7395       
  4321    91.4332    4168(65)          4071.7478         3971.7397       
  4322    91.4532    3983(63)          4066.9648         3971.7400       
  4323    91.4732    4033(64)          4061.1851         3970.7402       
  4324    91.4932    4102(64)          4056.4761         3970.7405       
  4325    91.5132    4053(64)          4051.8870         3970.7405       
  4326    91.5332    4083(64)          4046.4639         3969.7410       
  4327    91.5532    3957(63)          4042.2354         3969.7412       
  4328    91.5732    4007(63)          4038.2300         3969.7415       
  4329    91.5932    3963(63)          4034.4639         3969.7417       
  4330    91.6132    3972(63)          4029.9482         3968.7419       
  4331    91.6332    4010(63)          4026.6931         3968.7422       
  4332    91.6532    3980(63)          4023.6780         3968.7427       
  4333    91.6732    4131(64)          4020.9475         3968.7429       
  4334    91.6932    4003(63)          4017.4749         3967.7434       
  4335    91.7132    4012(63)          4015.2871         3967.7437       
  4336    91.7332    3982(63)          4013.1829         3967.7441       
  4337    91.7532    3782(61)          4011.6262         3967.7446       
  4338    91.7732    3958(63)          4009.1157         3966.7449       
  4339    91.7932    4116(64)          4007.8176         3966.7454       
  4340    91.8132    3976(63)          4006.7192         3966.7456       
  4341    91.8332    4111(64)          4005.8059         3966.7461       
  4342    91.8532    3896(62)          4005.0640         3966.7466       
  4343    91.8732    4096(64)          4003.4771         3965.7468       
  4344    91.8932    3964(63)          4003.0303         3965.7473       
  4345    91.9132    4095(64)          4002.7070         3965.7480       
  4346    91.9332    3974(63)          4002.4690         3965.7485       
  4347    91.9532    4053(64)          4002.3401         3965.7488       
  4348    91.9732    4048(64)          4001.2820         3964.7493       
  4349    91.9932    3947(63)          4001.2761         3964.7500       
  4350    92.0132    3981(63)          4001.3008         3964.7505       
  4351    92.0332    3850(62)          4001.3455         3964.7510       
  4352    92.0532    4040(64)          4000.3911         3963.7515       
  4353    92.0732    4104(64)          4000.4246         3963.7520       
  4354    92.0932    3854(62)          4000.4358         3963.7524       
  4355    92.1132    3970(63)          4000.4189         3963.7532       
  4356    92.1332    3991(63)          4000.3713         3963.7537       
  4357    92.1532    3925(63)          3999.3032         3962.7544       
  4358    92.1732    3938(63)          3999.2046         3962.7549       
  4359    92.1932    4023(63)          3999.0918         3962.7556       
  4360    92.2132    4013(63)          3998.9756         3962.7561       
  4361    92.2332    4003(63)          3998.8655         3962.7566       
  4362    92.2532    3952(63)          3997.7739         3961.7573       
  4363    92.2732    3975(63)          3997.7109         3961.7581       
  4364    92.2932    3850(62)          3997.6853         3961.7585       
  4365    92.3132    3865(62)          3997.7048         3961.7593       
  4366    92.3332    3936(63)          3997.7749         3961.7598       
  4367    92.3532    4039(64)          3996.8999         3960.7605       
  4368    92.3732    4001(63)          3997.0845         3960.7610       
  4369    92.3932    4005(63)          3997.3223         3960.7617       
  4370    92.4132    4036(64)          3997.6140         3960.7625       
  4371    92.4332    3838(62)          3996.9561         3959.7629       
  4372    92.4532    3943(63)          3997.3472         3959.7637       
  4373    92.4732    4021(63)          3997.7690         3959.7642       
  4374    92.4932    4069(64)          3998.2168         3959.7649       
  4375    92.5132    3963(63)          3998.6790         3959.7656       
  4376    92.5332    3940(63)          3998.1421         3958.7664       
  4377    92.5532    4068(64)          3998.5928         3958.7671       
  4378    92.5732    4009(63)          3999.0181         3958.7678       
  4379    92.5932    3991(63)          3999.4060         3958.7683       
  4380    92.6132    4006(63)          3999.7480         3958.7690       
  4381    92.6332    3963(63)          3999.0383         3957.7698       
  4382    92.6532    3916(63)          3999.2756         3957.7703       
  4383    92.6732    3956(63)          3999.4641         3957.7710       
  4384    92.6932    4062(64)          3999.6116         3957.7717       
  4385    92.7132    3950(63)          3998.7312         3956.7727       
  4386    92.7332    3996(63)          3998.8376         3956.7732       
  4387    92.7532    4182(65)          3998.9497         3956.7739       
  4388    92.7732    3892(62)          3999.0867         3956.7747       
  4389    92.7932    4138(64)          3999.2600         3956.7751       
  4390    92.8132    4134(64)          3998.5051         3955.7759       
  4391    92.8332    4041(64)          3998.8333         3955.7766       
  4392    92.8532    3959(63)          3998.2620         3954.7771       
  4393    92.8732    4049(64)          3998.8096         3954.7778       
  4394    92.8932    4109(64)          3999.4919         3954.7786       
  4395    92.9132    4003(63)          3999.3254         3953.7793       
  4396    92.9332    3867(62)          4000.3259         3953.7800       
  4397    92.9532    4026(63)          4001.4968         3953.7808       
  4398    92.9732    3987(63)          4002.8767         3953.7815       
  4399    92.9932    3905(62)          4003.4678         3952.7820       
  4400    93.0132    4022(63)          4005.2871         3952.7827       
  4401    93.0332    3986(63)          4007.3469         3952.7834       
  4402    93.0532    3839(62)          4009.6636         3952.7839       
  4403    93.0732    3811(62)          4013.3770         3953.7847       
  4404    93.0932    4078(64)          4015.2488         3952.7854       
  4405    93.1132    3944(63)          4018.4238         3952.7859       
  4406    93.1332    3988(63)          4021.9084         3952.7866       
  4407    93.1532    3991(63)          4025.5757         3952.7874       
  4408    93.1732    4050(64)          4029.7061         3952.7878       
  4409    93.1932    4156(64)          4033.1963         3951.7886       
  4410    93.2132    4039(64)          4038.0020         3951.7893       
  4411    93.2332    3994(63)          4043.1479         3951.7896       
  4412    93.2532    3870(62)          4048.6265         3951.7903       
  4413    93.2732    4117(64)          4054.4287         3951.7908       
  4414    93.2932    4075(64)          4059.5430         3950.7915       
  4415    93.3132    4036(64)          4065.9434         3950.7920       
  4416    93.3332    4244(65)          4072.6101         3950.7927       
  4417    93.3532    4091(64)          4079.5078         3950.7935       
  4418    93.3732    4139(64)          4085.6064         3949.7937       
  4419    93.3932    4093(64)          4092.8699         3949.7944       
  4420    93.4132    4126(64)          4100.2622         3949.7949       
  4421    93.4332    4173(65)          4107.7319         3949.7957       
  4422    93.4532    3980(63)          4115.2744         3949.7959       
  4423    93.4732    4251(65)          4121.8408         3948.7964       
  4424    93.4932    4067(64)          4129.3862         3948.7971       
  4425    93.5132    4263(65)          4136.8726         3948.7976       
  4426    93.5332    4136(64)          4144.2417         3948.7981       
  4427    93.5532    4061(64)          4151.4360         3948.7986       
  4428    93.5732    4203(65)          4157.3809         3947.7988       
  4429    93.5932    4365(66)          4163.9717         3947.7996       
  4430    93.6132    4104(64)          4170.1011         3947.8000       
  4431    93.6332    4218(65)          4175.6460         3947.8003       
  4432    93.6532    4315(66)          4179.5991         3946.8010       
  4433    93.6732    4250(65)          4183.5801         3946.8013       
  4434    93.6932    4162(65)          4186.5854         3946.8018       
  4435    93.7132    4321(66)          4188.5010         3946.8022       
  4436    93.7332    4275(65)          4189.2437         3946.8027       
  4437    93.7532    4218(65)          4187.7612         3945.8030       
  4438    93.7732    4232(65)          4186.0449         3945.8032       
  4439    93.7932    4183(65)          4183.1250         3945.8037       
  4440    93.8132    4247(65)          4179.0742         3945.8040       
  4441    93.8332    4135(64)          4173.9961         3945.8044       
  4442    93.8532    4112(64)          4167.0254         3944.8049       
  4443    93.8732    4078(64)          4160.3066         3944.8052       
  4444    93.8932    4051(64)          4152.9590         3944.8054       
  4445    93.9132    4266(65)          4145.2173         3944.8057       
  4446    93.9332    4242(65)          4136.1836         3943.8059       
  4447    93.9532    4130(64)          4127.9961         3943.8064       
  4448    93.9732    4156(64)          4119.6997         3943.8066       
  4449    93.9932    4142(64)          4111.5332         3943.8069       
  4450    94.0132    4129(64)          4103.5063         3943.8071       
  4451    94.0332    4022(63)          4094.6907         3942.8071       
  4452    94.0532    3985(63)          4087.1323         3942.8074       
  4453    94.0732    3963(63)          4079.8748         3942.8076       
  4454    94.0932    4158(64)          4072.9448         3942.8079       
  4455    94.1132    4111(64)          4066.3589         3942.8081       
  4456    94.1332    4174(65)          4059.1309         3941.8081       
  4457    94.1532    4161(65)          4053.2737         3941.8081       
  4458    94.1732    4209(65)          4047.7920         3941.8083       
  4459    94.1932    4068(64)          4042.6821         3941.8083       
  4460    94.2132    4037(64)          4037.9487         3941.8086       
  4461    94.2332    4087(64)          4032.5852         3940.8088       
  4462    94.2532    3992(63)          4028.5898         3940.8086       
  4463    94.2732    3928(63)          4024.9563         3940.8088       
  4464    94.2932    4003(63)          4021.6748         3940.8086       
  4465    94.3132    3839(62)          4017.7402         3939.8088       
  4466    94.3332    3940(63)          4015.1392         3939.8088       
  4467    94.3532    3965(63)          4012.8623         3939.8088       
  4468    94.3732    4048(64)          4010.8953         3939.8088       
  4469    94.3932    4061(64)          4009.2261         3939.8088       
  4470    94.4132    4100(64)          4006.8401         3938.8088       
  4471    94.4332    3898(62)          4005.7219         3938.8086       
  4472    94.4532    4029(63)          4004.8586         3938.8086       
  4473    94.4732    3866(62)          4004.2336         3938.8086       
  4474    94.4932    4013(63)          4003.8328         3938.8083       
  4475    94.5132    3961(63)          4002.6401         3937.8083       
  4476    94.5332    4143(64)          4002.3635         3937.8081       
  4477    94.5532    4013(63)          4002.5420         3937.8081       
  4478    94.5732    3995(63)          4002.8467         3937.8079       
  4479    94.5932    3966(63)          4002.3132         3936.8076       
  4480    94.6132    4020(63)          4002.8911         3936.8074       
  4481    94.6332    4130(64)          4003.5540         3936.8071       
  4482    94.6532    4068(64)          4003.2725         3935.8069       
  4483    94.6732    4025(63)          4004.0688         3935.8066       
  4484    94.6932    4008(63)          4004.7971         3935.8064       
  4485    94.7132    4207(65)          4006.4736         3936.8062       
  4486    94.7332    3918(63)          4008.0588         3937.8059       
  4487    94.7532    4027(63)          4008.5132         3937.8057       
  4488    94.7732    4118(64)          4009.7998         3938.8054       
  4489    94.7932    4183(65)          4010.8862         3939.8049       
  4490    94.8132    3960(63)          4011.7480         3940.8047       
  4491    94.8332    4079(64)          4011.3689         3940.8042       
  4492    94.8532    4076(64)          4011.7439         3941.8037       
  4493    94.8732    4073(64)          4011.8782         3942.8035       
  4494    94.8932    4183(65)          4010.7876         3942.8032       
  4495    94.9132    4140(64)          4010.1780         3943.8025       
  4496    94.9332    3970(63)          4009.7166         3944.8022       
  4497    94.9532    4025(63)          4009.1182         3945.8018       
  4498    94.9732    3897(62)          4007.4175         3945.8013       
  4499    94.9932    3938(63)          4006.6509         3946.8008       
  4500    95.0132    4202(65)          4006.1206         3947.8003       
  4501    95.0332    3896(62)          4005.3201         3948.7998       
  4502    95.0532    4046(64)          4003.5220         3948.7991       
  4503    95.0732    4077(64)          4002.7942         3949.7988       
  4504    95.0932    4005(63)          4002.1338         3950.7981       
  4505    95.1132    3916(63)          4000.5574         3950.7974       
  4506    95.1332    4071(64)          3999.0728         3950.7969       
  4507    95.1532    3992(63)          3999.0488         3951.7964       
  4508    95.1732    4080(64)          3998.8027         3952.7957       
  4509    95.1932    4098(64)          3998.6824         3953.7952       
  4510    95.2132    4018(63)          3997.6938         3953.7944       
  4511    95.2332    3908(63)          3997.8408         3954.7937       
  4512    95.2532    3971(63)          3998.1267         3955.7930       
  4513    95.2732    4000(63)          3998.5530         3956.7925       
  4514    95.2932    4227(65)          3998.1204         3956.7917       
  4515    95.3132    4112(64)          3998.8296         3957.7910       
  4516    95.3332    3966(63)          3999.6753         3958.7903       
  4517    95.3532    4030(63)          4000.6650         3959.7893       
  4518    95.3732    3983(63)          4000.7935         3959.7886       
  4519    95.3932    4088(64)          4002.0581         3960.7878       
  4520    95.4132    3923(63)          4003.4573         3961.7871       
  4521    95.4332    3948(63)          4002.9880         3960.7864       
  4522    95.4532    4023(63)          4004.6472         3961.7854       
  4523    95.4732    3954(63)          4006.4331         3962.7847       
  4524    95.4932    4095(64)          4008.3411         3963.7839       
  4525    95.5132    4095(64)          4009.3794         3963.7830       
  4526    95.5332    4079(64)          4011.5220         3964.7822       
  4527    95.5532    4136(64)          4013.7759         3965.7812       
  4528    95.5732    3953(63)          4016.1357         3966.7805       
  4529    95.5932    3982(63)          4017.5964         3966.7795       
  4530    95.6132    3999(63)          4020.1536         3967.7786       
  4531    95.6332    3912(63)          4022.8008         3968.7776       
  4532    95.6532    4063(64)          4025.5396         3969.7769       
  4533    95.6732    3964(63)          4027.3547         3969.7759       
  4534    95.6932    4089(64)          4029.2505         3969.7747       
  4535    95.7132    3935(63)          4032.2258         3970.7739       
  4536    95.7332    4106(64)          4035.2842         3971.7729       
  4537    95.7532    4092(64)          4037.4294         3971.7720       
  4538    95.7732    4007(63)          4040.6697         3972.7708       
  4539    95.7932    3996(63)          4044.0164         3973.7700       
  4540    95.8132    3928(63)          4047.4775         3974.7690       
  4541    95.8332    3962(63)          4050.0664         3974.7678       
  4542    95.8532    4001(63)          4053.7915         3975.7668       
  4543    95.8732    4023(63)          4057.6631         3976.7656       
  4544    95.8932    4131(64)          4059.6855         3975.7646       
  4545    95.9132    4150(64)          4063.8618         3976.7637       
  4546    95.9332    4157(64)          4068.2788         3977.7625       
  4547    95.9532    4018(63)          4072.7559         3978.7617       
  4548    95.9732    4109(64)          4076.3694         3978.7605       
  4549    95.9932    3939(63)          4081.1018         3979.7595       
  4550    96.0132    4090(64)          4085.9453         3980.7581       
  4551    96.0332    4048(64)          4090.8452         3981.7571       
  4552    96.0532    4054(64)          4094.7808         3981.7559       
  4553    96.0732    4086(64)          4099.7061         3982.7549       
  4554    96.0932    3912(63)          4103.5615         3982.7537       
  4555    96.1132    4199(65)          4108.3081         3983.7527       
  4556    96.1332    4062(64)          4111.8662         3983.7515       
  4557    96.1532    4014(63)          4116.1646         3984.7505       
  4558    96.1732    4107(64)          4119.8745         3985.7490       
  4559    96.1932    4023(63)          4123.4146         3986.7478       
  4560    96.2132    4016(63)          4125.4570         3986.7468       
  4561    96.2332    4115(64)          4127.9341         3987.7456       
  4562    96.2532    4121(64)          4129.7871         3988.7446       
  4563    96.2732    4144(64)          4129.9775         3988.7432       
  4564    96.2932    4202(65)          4129.4883         3988.7422       
  4565    96.3132    4294(66)          4129.3242         3989.7410       
  4566    96.3332    4122(64)          4128.5127         3990.7395       
  4567    96.3532    4229(65)          4126.1045         3990.7385       
  4568    96.3732    4046(64)          4124.1626         3991.7373       
  4569    96.3932    4174(65)          4121.7666         3992.7361       
  4570    96.4132    4091(64)          4116.9995         3991.7349       
  4571    96.4332    4095(64)          4111.9458         3990.7336       
  4572    96.4532    3983(63)          4108.0132         3990.7324       
  4573    96.4732    4023(63)          4102.6367         3989.7312       
  4574    96.4932    4198(65)          4098.2100         3989.7300       
  4575    96.5132    3959(63)          4092.7935         3988.7288       
  4576    96.5332    3921(63)          4088.4458         3988.7273       
  4577    96.5532    4030(63)          4084.2119         3988.7263       
  4578    96.5732    4005(63)          4079.2668         3987.7251       
  4579    96.5932    4166(65)          4074.3782         3986.7239       
  4580    96.6132    4123(64)          4069.7046         3985.7227       
  4581    96.6332    3981(63)          4066.2717         3985.7214       
  4582    96.6532    4030(63)          4063.0957         3985.7202       
  4583    96.6732    3939(63)          4059.1938         3984.7190       
  4584    96.6932    3953(63)          4056.5764         3984.7178       
  4585    96.7132    4164(65)          4054.2539         3984.7166       
  4586    96.7332    3901(62)          4051.2290         3983.7153       
  4587    96.7532    3963(63)          4048.5083         3982.7141       
  4588    96.7732    4077(64)          4046.0933         3981.7129       
  4589    96.7932    3868(62)          4044.9834         3981.7117       
  4590    96.8132    3970(63)          4044.1782         3981.7104       
  4591    96.8332    4073(64)          4042.6741         3980.7092       
  4592    96.8532    3967(63)          4042.4670         3980.7080       
  4593    96.8732    4076(64)          4041.5508         3979.7068       
  4594    96.8932    3996(63)          4040.9182         3978.7056       
  4595    96.9132    4046(64)          4041.5613         3978.7043       
  4596    96.9332    4111(64)          4041.4707         3977.7034       
  4597    96.9532    4064(64)          4042.6338         3977.7019       
  4598    96.9732    4054(64)          4044.0398         3977.7009       
  4599    96.9932    3993(63)          4044.6726         3976.6995       
  4600    97.0132    4060(64)          4046.5173         3976.6985       
  4601    97.0332    4034(64)          4046.5537         3974.6973       
  4602    97.0532    3841(62)          4048.7620         3974.6963       
  4603    97.0732    4100(64)          4051.1152         3974.6948       
  4604    97.0932    4087(64)          4052.5552         3973.6938       
  4605    97.1132    4031(63)          4055.1133         3973.6926       
  4606    97.1332    4130(64)          4056.7192         3972.6917       
  4607    97.1532    4095(64)          4059.3323         3972.6902       
  4608    97.1732    4281(65)          4060.9048         3971.6892       
  4609    97.1932    3946(63)          4062.3865         3970.6880       
  4610    97.2132    4017(63)          4064.8362         3970.6870       
  4611    97.2332    4181(65)          4066.9685         3970.6858       
  4612    97.2532    4046(64)          4067.8391         3969.6848       
  4613    97.2732    4099(64)          4069.3933         3969.6838       
  4614    97.2932    4170(65)          4068.5815         3967.6826       
  4615    97.3132    4216(65)          4069.3618         3967.6816       
  4616    97.3332    4195(65)          4069.7043         3967.6804       
  4617    97.3532    4087(64)          4068.5933         3966.6794       
  4618    97.3732    4058(64)          4068.0264         3966.6785       
  4619    97.3932    4121(64)          4066.0171         3965.6772       
  4620    97.4132    4119(64)          4064.5930         3965.6763       
  4621    97.4332    4056(64)          4061.7920         3964.6755       
  4622    97.4532    4087(64)          4058.6619         3963.6743       
  4623    97.4732    4066(64)          4056.2539         3963.6733       
  4624    97.4932    3954(63)          4053.6248         3963.6724       
  4625    97.5132    3961(63)          4049.8267         3962.6714       
  4626    97.5332    4061(64)          4046.9128         3962.6704       
  4627    97.5532    3896(62)          4041.9287         3960.6694       
  4628    97.5732    4009(63)          4038.9182         3960.6687       
  4629    97.5932    4089(64)          4035.9165         3960.6677       
  4630    97.6132    4045(64)          4031.9534         3959.6667       
  4631    97.6332    4143(64)          4029.0562         3959.6658       
  4632    97.6532    4046(64)          4025.2434         3958.6650       
  4633    97.6732    3890(62)          4022.5330         3958.6641       
  4634    97.6932    3952(63)          4018.8953         3957.6633       
  4635    97.7132    3940(63)          4015.4204         3956.6626       
  4636    97.7332    4111(64)          4013.0723         3956.6616       
  4637    97.7532    3884(62)          4010.8567         3956.6609       
  4638    97.7732    4057(64)          4007.7739         3955.6602       
  4639    97.7932    4106(64)          4005.8237         3955.6594       
  4640    97.8132    3982(63)          4002.0068         3953.6584       
  4641    97.8332    4021(63)          4000.3203         3953.6577       
  4642    97.8532    4043(64)          3998.7632         3953.6570       
  4643    97.8732    3941(63)          3996.3357         3952.6562       
  4644    97.8932    3928(63)          3995.3616         3952.6555       
  4645    97.9132    3892(62)          3993.1763         3951.6548       
  4646    97.9332    3852(62)          3992.1069         3951.6541       
  4647    97.9532    3958(63)          3990.1514         3950.6536       
  4648    97.9732    3927(63)          3988.3044         3949.6531       
  4649    97.9932    4029(63)          3987.5632         3949.6523       
  4650    98.0132    3912(63)          3986.9233         3949.6516       
  4651    98.0332    3951(63)          3985.3826         3948.6514       
  4652    98.0532    3888(62)          3984.9360         3948.6506       
  4653    98.0732    3914(63)          3983.5830         3947.6499       
  4654    98.0932    3882(62)          3982.3198         3946.6497       
  4655    98.1132    4177(65)          3982.1448         3946.6489       
  4656    98.1332    4006(63)          3981.1670         3945.6484       
  4657    98.1532    3989(63)          3981.1687         3945.6479       
  4658    98.1732    3958(63)          3980.2588         3944.6475       
  4659    98.1932    4057(64)          3980.4395         3944.6472       
  4660    98.2132    4150(64)          3980.7114         3944.6467       
  4661    98.2332    3922(63)          3979.0779         3942.6462       
  4662    98.2532    4068(64)          3979.5415         3942.6460       
  4663    98.2732    3979(63)          3980.1050         3942.6455       
  4664    98.2932    4087(64)          3979.7734         3941.6453       
  4665    98.3132    3939(63)          3980.5469         3941.6450       
  4666    98.3332    3956(63)          3980.4294         3940.6448       
  4667    98.3532    3887(62)          3981.5005         3940.6443       
  4668    98.3732    3879(62)          3981.6086         3939.6440       
  4669    98.3932    3878(62)          3981.8413         3938.6438       
  4670    98.4132    4021(63)          3983.1804         3938.6438       
  4671    98.4332    4093(64)          3983.6958         3937.6436       
  4672    98.4532    4046(64)          3985.2666         3937.6433       
  4673    98.4732    3955(63)          3985.9517         3936.6433       
  4674    98.4932    3975(63)          3986.7598         3935.6431       
  4675    98.5132    3874(62)          3987.6614         3934.6431       
  4676    98.5332    3934(63)          3989.6658         3934.6428       
  4677    98.5532    4068(64)          3990.7595         3933.6428       
  4678    98.5732    3987(63)          3992.8716         3933.6426       
  4679    98.5932    4098(64)          3994.1160         3932.6426       
  4680    98.6132    4067(64)          3996.3853         3932.6426       
  4681    98.6332    4037(64)          3998.7195         3932.6428       
  4682    98.6532    4032(63)          4000.0684         3931.6428       
  4683    98.6732    3870(62)          4001.4055         3930.6426       
  4684    98.6932    4021(63)          4002.7058         3929.6428       
  4685    98.7132    4003(63)          4004.9365         3929.6428       
  4686    98.7332    3950(63)          4007.0569         3929.6433       
  4687    98.7532    3980(63)          4008.1045         3928.6433       
  4688    98.7732    4047(64)          4009.9397         3928.6436       
  4689    98.7932    3970(63)          4011.5879         3928.6436       
  4690    98.8132    4102(64)          4012.0134         3927.6438       
  4691    98.8332    3993(63)          4012.2039         3926.6440       
  4692    98.8532    3981(63)          4012.1472         3925.6443       
  4693    98.8732    3991(63)          4012.8413         3925.6448       
  4694    98.8932    4026(63)          4013.0515         3925.6448       
  4695    98.9132    4076(64)          4012.2710         3924.6453       
  4696    98.9332    4072(64)          4012.2786         3924.6455       
  4697    98.9532    4072(64)          4011.1001         3923.6460       
  4698    98.9732    4034(64)          4010.5063         3923.6465       
  4699    98.9932    4017(63)          4010.0486         3923.6470       
  4700    99.0132    3951(63)          4007.4985         3921.6472       
  4701    99.0332    4050(64)          4006.8904         3921.6477       
  4702    99.0532    3807(62)          4006.2549         3921.6482       
  4703    99.0732    3993(63)          4004.6223         3920.6487       
  4704    99.0932    3985(63)          4004.0056         3920.6492       
  4705    99.1132    3850(62)          4002.4563         3919.6499       
  4706    99.1332    3857(62)          4002.0403         3919.6504       
  4707    99.1532    3856(62)          4001.6550         3919.6509       
  4708    99.1732    3978(63)          4000.3730         3918.6516       
  4709    99.1932    3869(62)          4000.2029         3918.6523       
  4710    99.2132    4051(64)          3999.1475         3917.6528       
  4711    99.2332    4117(64)          3998.2080         3916.6536       
  4712    99.2532    4011(63)          3998.3799         3916.6543       
  4713    99.2732    4117(64)          3997.6548         3915.6553       
  4714    99.2932    3894(62)          3998.0190         3915.6558       
  4715    99.3132    3978(63)          3998.4563         3915.6567       
  4716    99.3332    3962(63)          3997.9226         3914.6575       
  4717    99.3532    3961(63)          3998.4380         3914.6582       
  4718    99.3732    3952(63)          3997.9519         3913.6589       
  4719    99.3932    4033(64)          3998.4346         3913.6599       
  4720    99.4132    4077(64)          3998.8538         3913.6609       
  4721    99.4332    4111(64)          3997.1787         3911.6619       
  4722    99.4532    3809(62)          3997.3672         3911.6626       
  4723    99.4732    3922(63)          3997.4165         3911.6636       
  4724    99.4932    3929(63)          3996.2922         3910.6646       
  4725    99.5132    4066(64)          3995.9790         3910.6655       
  4726    99.5332    3983(63)          3994.4678         3909.6667       
  4727    99.5532    3986(63)          3993.7561         3909.6677       
  4728    99.5732    4142(64)          3992.8503         3909.6687       
  4729    99.5932    3989(63)          3990.9148         3908.6699       
  4730    99.6132    4170(65)          3989.6624         3908.6709       
  4731    99.6332    3987(63)          3987.2673         3907.6721       
  4732    99.6532    4029(63)          3985.7515         3907.6731       
  4733    99.6732    4024(63)          3984.1348         3907.6746       
  4734    99.6932    3998(63)          3982.4539         3907.6758       
  4735    99.7132    4053(64)          3979.7275         3906.6768       
  4736    99.7332    4087(64)          3978.9753         3907.6780       
  4737    99.7532    4062(64)          3977.2183         3907.6794       
  4738    99.7732    4221(65)          3976.4746         3908.6807       
  4739    99.7932    3995(63)          3974.7576         3908.6821       
  4740    99.8132    3963(63)          3974.0879         3909.6833       
  4741    99.8332    3900(62)          3972.4756         3909.6848       
  4742    99.8532    3976(63)          3970.9329         3909.6860       
  4743    99.8732    3948(63)          3970.4705         3910.6875       
  4744    99.8932    3967(63)          3969.0984         3910.6887       
  4745    99.9132    3953(63)          3968.8257         3911.6902       
  4746    99.9332    4032(63)          3967.6616         3911.6917       
  4747    99.9532    3925(63)          3967.6106         3912.6931       
  4748    99.9732    3976(63)          3966.6816         3912.6946       
  4749    99.9932    3862(62)          3966.8782         3913.6963       
  4750   100.0132    3965(63)          3966.2058         3913.6975       
  4751   100.0332    3977(63)          3965.6699         3913.6992       
  4752   100.0532    3999(63)          3966.2737         3914.7007       
  4753   100.0732    3891(62)          3966.0212         3914.7024       
  4754   100.0932    4118(64)          3966.9153         3915.7039       
  4755   100.1132    3944(63)          3965.9595         3914.7056       
  4756   100.1332    3900(62)          3967.0427         3915.7073       
  4757   100.1532    3821(62)          3967.3962         3915.7087       
  4758   100.1732    3841(62)          3967.9087         3915.7104       
  4759   100.1932    3942(63)          3969.5835         3916.7122       
  4760   100.2132    4194(65)          3970.4233         3916.7139       
  4761   100.2332    4081(64)          3972.4326         3917.7156       
  4762   100.2532    3942(63)          3973.6152         3917.7173       
  4763   100.2732    3899(62)          3975.9746         3918.7190       
  4764   100.2932    4070(64)          3977.5166         3918.7209       
  4765   100.3132    3999(63)          3980.2441         3919.7227       
  4766   100.3332    3973(63)          3982.1636         3919.7244       
  4767   100.3532    4057(64)          3984.2786         3919.7261       
  4768   100.3732    3998(63)          3987.6926         3920.7280       
  4769   100.3932    3992(63)          3990.2146         3920.7297       
  4770   100.4132    4036(64)          3993.9465         3921.7314       
  4771   100.4332    3986(63)          3996.8945         3921.7336       
  4772   100.4532    4067(64)          4001.0991         3922.7354       
  4773   100.4732    4124(64)          4004.4849         3922.7373       
  4774   100.4932    3993(63)          4009.0911         3923.7393       
  4775   100.5132    4070(64)          4012.9211         3923.7412       
  4776   100.5332    4147(64)          4016.9717         3923.7429       
  4777   100.5532    3943(63)          4022.2449         3924.7451       
  4778   100.5732    3936(63)          4026.7349         3924.7468       
  4779   100.5932    3934(63)          4032.4412         3925.7490       
  4780   100.6132    4152(64)          4037.3616         3925.7507       
  4781   100.6332    3962(63)          4043.4902         3926.7529       
  4782   100.6532    4138(64)          4048.8279         3926.7549       
  4783   100.6732    4103(64)          4055.3674         3927.7568       
  4784   100.6932    3961(63)          4061.1116         3927.7590       
  4785   100.7132    4133(64)          4067.0537         3927.7610       
  4786   100.7332    3996(63)          4074.2058         3928.7629       
  4787   100.7532    3965(63)          4080.5430         3928.7651       
  4788   100.7732    4040(64)          4088.0669         3929.7673       
  4789   100.7932    4115(64)          4094.7729         3929.7693       
  4790   100.8132    4185(65)          4102.6426         3930.7712       
  4791   100.8332    4262(65)          4109.6621         3930.7734       
  4792   100.8532    4124(64)          4116.7988         3930.7756       
  4793   100.8732    3961(63)          4125.0205         3931.7778       
  4794   100.8932    4198(65)          4132.2832         3931.7798       
  4795   100.9132    4061(64)          4140.5361         3932.7820       
  4796   100.9332    4160(64)          4147.7163         3932.7842       
  4797   100.9532    4187(65)          4155.7500         3933.7864       
  4798   100.9732    4079(64)          4161.5645         3932.7886       
  4799   100.9932    4241(65)          4169.0728         3933.7908       
  4800   101.0132    4240(65)          4175.1938         3933.7930       
  4801   101.0332    4236(65)          4180.8374         3933.7952       
  4802   101.0532    4286(65)          4186.9238         3934.7974       
  4803   101.0732    4217(65)          4191.3706         3934.7993       
  4804   101.0932    4347(66)          4196.1089         3935.8015       
  4805   101.1132    4005(63)          4199.0820         3935.8037       
  4806   101.1332    4230(65)          4202.1899         3936.8059       
  4807   101.1532    4146(64)          4203.4795         3936.8081       
  4808   101.1732    4316(66)          4204.8848         3937.8103       
  4809   101.1932    4234(65)          4204.3965         3937.8125       
  4810   101.2132    4257(65)          4203.0186         3937.8147       
  4811   101.2332    4204(65)          4201.7729         3938.8171       
  4812   101.2532    4320(66)          4198.6929         3938.8193       
  4813   101.2732    4203(65)          4195.8340         3939.8215       
  4814   101.2932    4133(64)          4191.2588         3939.8237       
  4815   101.3132    4298(66)          4187.0615         3940.8259       
  4816   101.3332    4242(65)          4181.3027         3940.8281       
  4817   101.3532    4143(64)          4175.2480         3940.8303       
  4818   101.3732    4105(64)          4169.6812         3941.8328       
  4819   101.3932    4159(64)          4162.8589         3941.8352       
  4820   101.4132    4139(64)          4156.8716         3942.8374       
  4821   101.4332    4196(65)          4149.7944         3942.8396       
  4822   101.4532    4266(65)          4143.7358         3943.8418       
  4823   101.4732    4268(65)          4137.7520         3944.8442       
  4824   101.4932    4133(64)          4131.9116         3945.8464       
  4825   101.5132    4187(65)          4125.2642         3945.8486       
  4826   101.5332    4075(64)          4118.8604         3945.8508       
  4827   101.5532    3950(63)          4113.7334         3946.8530       
  4828   101.5732    4227(65)          4107.9180         3946.8555       
  4829   101.5932    4104(64)          4103.4263         3947.8577       
  4830   101.6132    4092(64)          4098.2935         3947.8599       
  4831   101.6332    4253(65)          4094.5273         3948.8621       
  4832   101.6532    4054(64)          4090.1331         3948.8643       
  4833   101.6732    4115(64)          4087.1189         3949.8665       
  4834   101.6932    4047(64)          4083.4841         3949.8687       
  4835   101.7132    4180(65)          4080.2317         3949.8711       
  4836   101.7332    4092(64)          4078.3564         3950.8733       
  4837   101.7532    3835(62)          4075.5615         3950.8755       
  4838   101.7732    4110(64)          4074.4285         3951.8777       
  4839   101.7932    4155(64)          4072.6536         3951.8799       
  4840   101.8132    3952(63)          4072.2285         3952.8821       
  4841   101.8332    4031(63)          4071.1411         3952.8843       
  4842   101.8532    4065(64)          4070.3792         3952.8865       
  4843   101.8732    4135(64)          4069.9280         3952.8887       
  4844   101.8932    3914(63)          4069.7715         3952.8909       
  4845   101.9132    3878(62)          4069.8914         3952.8928       
  4846   101.9332    3991(63)          4070.2686         3952.8950       
  4847   101.9532    4190(65)          4070.8811         3952.8972       
  4848   101.9732    3963(63)          4071.7068         3952.8994       
  4849   101.9932    3975(63)          4072.7192         3952.9016       
  4850   102.0132    4071(64)          4073.8948         3952.9038       
  4851   102.0332    4061(64)          4075.2073         3952.9060       
  4852   102.0532    4065(64)          4076.6279         3952.9080       
  4853   102.0732    3904(62)          4078.1394         3952.9102       
  4854   102.0932    4112(64)          4079.7175         3952.9124       
  4855   102.1132    4219(65)          4081.3467         3952.9146       
  4856   102.1332    4129(64)          4083.0120         3952.9163       
  4857   102.1532    4029(63)          4084.7090         3952.9185       
  4858   102.1732    4099(64)          4086.4353         3952.9207       
  4859   102.1932    3930(63)          4088.1956         3952.9229       
  4860   102.2132    3952(63)          4090.0117         3952.9246       
  4861   102.2332    4115(64)          4091.8743         3952.9268       
  4862   102.2532    4183(65)          4093.8142         3952.9290       
  4863   102.2732    4138(64)          4095.8503         3952.9307       
  4864   102.2932    4082(64)          4098.0068         3952.9329       
  4865   102.3132    4037(64)          4100.3018         3952.9348       
  4866   102.3332    4148(64)          4102.7568         3952.9368       
  4867   102.3532    4023(63)          4105.3872         3952.9387       
  4868   102.3732    4072(64)          4108.2075         3952.9407       
  4869   102.3932    4043(64)          4112.2363         3953.9426       
  4870   102.4132    4146(64)          4115.4546         3953.9446       
  4871   102.4332    4025(63)          4118.8735         3953.9465       
  4872   102.4532    4120(64)          4122.4819         3953.9485       
  4873   102.4732    4068(64)          4126.2671         3953.9502       
  4874   102.4932    4127(64)          4130.2051         3953.9524       
  4875   102.5132    4105(64)          4134.2681         3953.9541       
  4876   102.5332    4139(64)          4138.4175         3953.9558       
  4877   102.5532    4247(65)          4142.6094         3953.9578       
  4878   102.5732    4082(64)          4146.7876         3953.9595       
  4879   102.5932    4238(65)          4150.8955         3953.9614       
  4880   102.6132    4084(64)          4154.8667         3953.9631       
  4881   102.6332    4099(64)          4158.6279         3953.9648       
  4882   102.6532    4194(65)          4162.1079         3953.9668       
  4883   102.6732    4226(65)          4164.2285         3952.9685       
  4884   102.6932    4178(65)          4166.9194         3952.9702       
  4885   102.7132    4200(65)          4169.1113         3952.9719       
  4886   102.7332    4100(64)          4170.7632         3952.9734       
  4887   102.7532    4283(65)          4171.7944         3952.9751       
  4888   102.7732    4206(65)          4172.1865         3952.9768       
  4889   102.7932    4149(64)          4171.9204         3952.9785       
  4890   102.8132    4219(65)          4170.9941         3952.9802       
  4891   102.8332    4251(65)          4169.4185         3952.9817       
  4892   102.8532    4136(64)          4167.2222         3952.9834       
  4893   102.8732    4040(64)          4164.4438         3952.9849       
  4894   102.8932    4249(65)          4160.1064         3951.9863       
  4895   102.9132    4108(64)          4156.3418         3951.9878       
  4896   102.9332    4316(66)          4152.1606         3951.9895       
  4897   102.9532    4296(66)          4147.4678         3951.9910       
  4898   102.9732    4191(65)          4142.6904         3951.9924       
  4899   102.9932    4107(64)          4137.7271         3951.9939       
  4900   103.0132    4071(64)          4132.6304         3951.9951       
  4901   103.0332    4280(65)          4127.4746         3951.9968       
  4902   103.0532    4120(64)          4122.3140         3951.9983       
  4903   103.0732    4063(64)          4117.2056         3951.9995       
  4904   103.0932    4112(64)          4112.1953         3952.0010       
  4905   103.1132    3932(63)          4107.3228         3952.0022       
  4906   103.1332    4075(64)          4102.6279         3952.0034       
  4907   103.1532    4090(64)          4098.1367         3952.0049       
  4908   103.1732    4088(64)          4093.8782         3952.0061       
  4909   103.1932    4081(64)          4089.8711         3952.0073       
  4910   103.2132    4117(64)          4086.1289         3952.0085       
  4911   103.2332    4134(64)          4082.6643         3952.0098       
  4912   103.2532    4106(64)          4079.4829         3952.0110       
  4913   103.2732    4051(64)          4076.5913         3952.0122       
  4914   103.2932    3912(63)          4073.9875         3952.0132       
  4915   103.3132    4049(64)          4071.6714         3952.0144       
  4916   103.3332    4196(65)          4069.6353         3952.0156       
  4917   103.3532    4150(64)          4067.8726         3952.0168       
  4918   103.3732    3993(63)          4066.3706         3952.0178       
  4919   103.3932    3949(63)          4065.1165         3952.0186       
  4920   103.4132    4131(64)          4064.0947         3952.0198       
  4921   103.4332    4000(63)          4063.2854         3952.0208       
  4922   103.4532    4045(64)          4062.6694         3952.0217       
  4923   103.4732    4159(64)          4061.2161         3951.0227       
  4924   103.4932    4000(63)          4060.9177         3951.0237       
  4925   103.5132    3936(63)          4060.7419         3951.0244       
  4926   103.5332    4036(64)          4060.6646         3951.0254       
  4927   103.5532    4094(64)          4060.6633         3951.0264       
  4928   103.5732    4025(63)          4060.7163         3951.0271       
  4929   103.5932    4014(63)          4060.8054         3951.0281       
  4930   103.6132    4081(64)          4060.9155         3951.0288       
  4931   103.6332    4037(64)          4061.0369         3951.0295       
  4932   103.6532    4132(64)          4061.1646         3951.0303       
  4933   103.6732    4154(64)          4061.2996         3951.0312       
  4934   103.6932    4183(65)          4061.4470         3951.0317       
  4935   103.7132    4074(64)          4061.6187         3951.0325       
  4936   103.7332    4047(64)          4061.8252         3951.0332       
  4937   103.7532    4071(64)          4062.0930         3951.0339       
  4938   103.7732    4077(64)          4061.4385         3950.0344       
  4939   103.7932    3961(63)          4061.8843         3950.0349       
  4940   103.8132    4097(64)          4062.4529         3950.0354       
  4941   103.8332    4070(64)          4064.1670         3951.0361       
  4942   103.8532    4143(64)          4065.0417         3951.0366       
  4943   103.8732    3996(63)          4066.1079         3951.0371       
  4944   103.8932    3940(63)          4068.3774         3952.0376       
  4945   103.9132    4029(63)          4069.8679         3952.0381       
  4946   103.9332    4115(64)          4071.6162         3952.0386       
  4947   103.9532    4180(65)          4074.5789         3953.0388       
  4948   103.9732    4077(64)          4076.7932         3953.0393       
  4949   103.9932    4089(64)          4078.2625         3952.0398       
  4950   104.0132    4114(64)          4081.9902         3953.0400       
  4951   104.0332    4013(63)          4084.9744         3953.0403       
  4952   104.0532    4074(64)          4089.2134         3954.0408       
  4953   104.0732    3954(63)          4093.6968         3955.0408       
  4954   104.0932    4155(64)          4097.4160         3955.0413       
  4955   104.1132    4189(65)          4101.3560         3955.0413       
  4956   104.1332    4090(64)          4106.4961         3956.0417       
  4957   104.1532    4012(63)          4110.8140         3956.0417       
  4958   104.1732    4189(65)          4114.2783         3955.0420       
  4959   104.1932    4022(63)          4118.8579         3955.0420       
  4960   104.2132    4073(64)          4124.5093         3956.0422       
  4961   104.2332    4120(64)          4129.1899         3956.0422       
  4962   104.2532    4060(64)          4133.8516         3956.0422       
  4963   104.2732    4122(64)          4139.4370         3957.0422       
  4964   104.2932    4243(65)          4143.8945         3957.0425       
  4965   104.3132    4231(65)          4148.1611         3957.0425       
  4966   104.3332    4264(65)          4153.1836         3958.0425       
  4967   104.3532    4190(65)          4155.9048         3957.0425       
  4968   104.3732    4308(66)          4159.2788         3957.0422       
  4969   104.3932    4308(66)          4163.2617         3958.0422       
  4970   104.4132    4165(65)          4165.8262         3958.0422       
  4971   104.4332    4234(65)          4167.9453         3958.0420       
  4972   104.4532    4394(66)          4170.6123         3959.0420       
  4973   104.4732    4099(64)          4171.8306         3959.0417       
  4974   104.4932    4061(64)          4171.6113         3958.0413       
  4975   104.5132    4097(64)          4172.9780         3959.0413       
  4976   104.5332    4089(64)          4172.9600         3959.0410       
  4977   104.5532    4135(64)          4172.5879         3959.0408       
  4978   104.5732    4210(65)          4173.0146         3960.0403       
  4979   104.5932    4018(63)          4172.0449         3960.0403       
  4980   104.6132    4189(65)          4170.8276         3960.0400       
  4981   104.6332    4189(65)          4169.2695         3960.0396       
  4982   104.6532    4165(65)          4167.6504         3960.0393       
  4983   104.6732    4267(65)          4165.8701         3960.0388       
  4984   104.6932    4154(64)          4164.9453         3961.0383       
  4985   104.7132    4128(64)          4162.9019         3961.0378       
  4986   104.7332    4198(65)          4160.7568         3961.0376       
  4987   104.7532    3927(63)          4158.5356         3961.0371       
  4988   104.7732    4174(65)          4156.2275         3961.0364       
  4989   104.7932    4239(65)          4153.8594         3961.0361       
  4990   104.8132    4166(65)          4151.4097         3961.0354       
  4991   104.8332    4169(65)          4149.9336         3962.0349       
  4992   104.8532    4223(65)          4147.4160         3962.0342       
  4993   104.8732    4188(65)          4144.8574         3962.0337       
  4994   104.8932    4121(64)          4142.2617         3962.0332       
  4995   104.9132    4226(65)          4139.6260         3962.0327       
  4996   104.9332    4070(64)          4136.9478         3962.0320       
  4997   104.9532    4252(65)          4135.2251         3963.0312       
  4998   104.9732    4142(64)          4132.4531         3963.0305       
  4999   104.9932    3977(63)          4129.6323         3963.0298       
  5000   105.0132    4101(64)          4126.7583         3963.0291       
  5001   105.0332    4068(64)          4123.8354         3963.0286       
  5002   105.0532    4174(65)          4120.8638         3963.0278       
  5003   105.0732    4097(64)          4118.8516         3964.0266       
  5004   105.0932    4059(64)          4115.8066         3964.0259       
  5005   105.1132    4206(65)          4112.7388         3964.0251       
  5006   105.1332    4145(64)          4109.6616         3964.0244       
  5007   105.1532    3984(63)          4106.5874         3964.0237       
  5008   105.1732    4106(64)          4103.5327         3964.0227       
  5009   105.1932    4095(64)          4101.5088         3965.0217       
  5010   105.2132    4089(64)          4098.5327         3965.0210       
  5011   105.2332    4065(64)          4095.6150         3965.0200       
  5012   105.2532    3954(63)          4092.7651         3965.0190       
  5013   105.2732    4056(64)          4089.9963         3965.0181       
  5014   105.2932    4086(64)          4087.3003         3965.0171       
  5015   105.3132    4097(64)          4085.7039         3966.0164       
  5016   105.3332    4170(65)          4083.1948         3966.0151       
  5017   105.3532    4039(64)          4080.7832         3966.0139       
  5018   105.3732    4192(65)          4077.4644         3965.0132       
  5019   105.3932    4030(63)          4076.2383         3966.0120       
  5020   105.4132    3928(63)          4073.9839         3966.0110       
  5021   105.4332    3943(63)          4071.9395         3966.0100       
  5022   105.4532    4100(64)          4070.9858         3967.0090       
  5023   105.4732    4088(64)          4068.1211         3966.0078       
  5024   105.4932    4052(64)          4066.3481         3966.0066       
  5025   105.5132    3987(63)          4065.6675         3967.0054       
  5026   105.5332    4031(63)          4064.0828         3967.0044       
  5027   105.5532    4011(63)          4062.5955         3967.0032       
  5028   105.5732    3924(63)          4062.2092         3968.0020       
  5029   105.5932    4031(63)          4059.9263         3967.0007       
  5030   105.6132    4139(64)          4058.7483         3966.9998       
  5031   105.6332    4274(65)          4058.6760         3967.9985       
  5032   105.6532    4108(64)          4057.7092         3967.9973       
  5033   105.6732    4002(63)          4056.8467         3967.9961       
  5034   105.6932    4118(64)          4056.0847         3967.9946       
  5035   105.7132    4042(64)          4055.4072         3967.9934       
  5036   105.7332    4114(64)          4054.8342         3967.9922       
  5037   105.7532    3907(63)          4055.3462         3968.9910       
  5038   105.7732    3905(62)          4054.9365         3968.9895       
  5039   105.7932    4130(64)          4054.5984         3968.9885       
  5040   105.8132    3988(63)          4054.3242         3968.9871       
  5041   105.8332    4015(63)          4054.1077         3968.9858       
  5042   105.8532    3964(63)          4053.9436         3968.9844       
  5043   105.8732    4164(65)          4054.8276         3969.9829       
  5044   105.8932    4176(65)          4054.7573         3969.9817       
  5045   105.9132    4081(64)          4055.7312         3970.9802       
  5046   105.9332    4251(65)          4055.7500         3970.9790       
  5047   105.9532    4004(63)          4055.8149         3970.9775       
  5048   105.9732    3993(63)          4055.9287         3970.9761       
  5049   105.9932    3978(63)          4057.0950         3971.9749       
  5050   106.0132    4006(63)          4057.3167         3971.9734       
  5051   106.0332    4038(64)          4056.5972         3970.9722       
  5052   106.0532    4084(64)          4057.9387         3971.9707       
  5053   106.0732    4202(65)          4058.3423         3971.9690       
  5054   106.0932    4050(64)          4058.8083         3971.9675       
  5055   106.1132    4024(63)          4060.3352         3972.9663       
  5056   106.1332    3951(63)          4060.9180         3972.9648       
  5057   106.1532    4028(63)          4060.5513         3971.9634       
  5058   106.1732    4007(63)          4062.2256         3972.9617       
  5059   106.1932    3931(63)          4062.9316         3972.9604       
  5060   106.2132    4027(63)          4063.6548         3972.9590       
  5061   106.2332    4136(64)          4065.3796         3973.9575       
  5062   106.2532    4032(63)          4066.0886         3973.9558       
  5063   106.2732    4018(63)          4066.7627         3973.9543       
  5064   106.2932    4100(64)          4067.3811         3973.9529       
  5065   106.3132    4065(64)          4067.9224         3973.9514       
  5066   106.3332    4059(64)          4068.3652         3973.9497       
  5067   106.3532    3903(62)          4069.6902         3974.9485       
  5068   106.3732    4127(64)          4069.8784         3974.9470       
  5069   106.3932    4048(64)          4069.9150         3974.9456       
  5070   106.4132    4073(64)          4069.7881         3974.9438       
  5071   106.4332    4162(65)          4069.4910         3974.9424       
  5072   106.4532    4232(65)          4069.0210         3974.9409       
  5073   106.4732    4243(65)          4069.3804         3975.9392       
  5074   106.4932    3913(63)          4068.5774         3975.9377       
  5075   106.5132    4041(64)          4067.6238         3975.9363       
  5076   106.5332    4178(65)          4067.5356         3976.9346       
  5077   106.5532    4100(64)          4065.3313         3975.9331       
  5078   106.5732    4194(65)          4064.0308         3975.9316       
  5079   106.5932    4160(64)          4063.6599         3976.9299       
  5080   106.6132    4111(64)          4062.2388         3976.9282       
  5081   106.6332    4112(64)          4060.7913         3976.9268       
  5082   106.6532    4201(65)          4060.3376         3977.9253       
  5083   106.6732    4072(64)          4058.8992         3977.9236       
  5084   106.6932    3925(63)          4057.4934         3977.9221       
  5085   106.7132    4045(64)          4056.0830         3977.9207       
  5086   106.7332    4010(63)          4054.7925         3977.9189       
  5087   106.7532    4005(63)          4053.5798         3977.9175       
  5088   106.7732    3986(63)          4053.4563         3978.9160       
  5089   106.7932    4193(65)          4052.4309         3978.9146       
  5090   106.8132    4111(64)          4051.5120         3978.9128       
  5091   106.8332    4038(64)          4051.7053         3979.9114       
  5092   106.8532    3985(63)          4051.0164         3979.9097       
  5093   106.8732    4005(63)          4049.4485         3978.9080       
  5094   106.8932    4112(64)          4050.0044         3979.9065       
  5095   106.9132    4033(64)          4049.6851         3979.9050       
  5096   106.9332    4116(64)          4049.4907         3979.9036       
  5097   106.9532    3985(63)          4050.4199         3980.9019       
  5098   106.9732    3960(63)          4050.4709         3980.9004       
  5099   106.9932    3976(63)          4050.6399         3980.8989       
  5100   107.0132    4174(65)          4051.9224         3981.8975       
  5101   107.0332    3997(63)          4052.3118         3981.8958       
  5102   107.0532    3995(63)          4052.8010         3981.8943       
  5103   107.0732    4233(65)          4054.3806         3982.8926       
  5104   107.0932    4111(64)          4054.0408         3981.8911       
  5105   107.1132    4096(64)          4054.7690         3981.8896       
  5106   107.1332    4082(64)          4056.5510         3982.8879       
  5107   107.1532    4015(63)          4057.3726         3982.8865       
  5108   107.1732    4078(64)          4057.9487         3982.8850       
  5109   107.1932    4026(63)          4059.7981         3983.8835       
  5110   107.2132    3942(63)          4060.6318         3983.8821       
  5111   107.2332    3969(63)          4061.4304         3983.8806       
  5112   107.2532    3993(63)          4063.1741         3984.8792       
  5113   107.2732    4213(65)          4063.8420         3984.8774       
  5114   107.2932    3982(63)          4064.4167         3984.8760       
  5115   107.3132    3870(62)          4065.8804         3985.8745       
  5116   107.3332    4094(64)          4066.2180         3985.8730       
  5117   107.3532    4043(64)          4066.0713         3985.8716       
  5118   107.3732    4188(65)          4067.1272         3986.8701       
  5119   107.3932    4112(64)          4067.0322         3986.8687       
  5120   107.4132    4162(65)          4066.7856         3986.8674       
  5121   107.4332    4082(64)          4067.3901         3987.8660       
  5122   107.4532    4086(64)          4066.8533         3987.8645       
  5123   107.4732    4103(64)          4066.1843         3987.8630       
  5124   107.4932    4094(64)          4066.3970         3988.8616       
  5125   107.5132    4095(64)          4064.5059         3987.8601       
  5126   107.5332    3999(63)          4063.5276         3987.8586       
  5127   107.5532    4048(64)          4063.4790         3988.8574       
  5128   107.5732    3979(63)          4062.3782         3988.8560       
  5129   107.5932    3925(63)          4061.2424         3988.8547       
  5130   107.6132    4296(66)          4061.0872         3989.8533       
  5131   107.6332    4177(65)          4059.9294         3989.8518       
  5132   107.6532    3959(63)          4058.7827         3989.8506       
  5133   107.6732    3958(63)          4057.6606         3989.8491       
  5134   107.6932    3972(63)          4058.5747         3991.8477       
  5135   107.7132    3938(63)          4057.5366         3991.8467       
  5136   107.7332    4160(64)          4056.5544         3991.8452       
  5137   107.7532    4096(64)          4055.6372         3991.8438       
  5138   107.7732    4080(64)          4055.7930         3992.8425       
  5139   107.7932    4150(64)          4055.0278         3992.8413       
  5140   107.8132    4093(64)          4054.3484         3992.8401       
  5141   107.8332    4031(63)          4053.7480         3992.8386       
  5142   107.8532    4115(64)          4054.2549         3993.8374       
  5143   107.8732    4175(65)          4053.8616         3993.8362       
  5144   107.8932    4047(64)          4053.5713         3993.8347       
  5145   107.9132    4101(64)          4053.3882         3993.8337       
  5146   107.9332    4144(64)          4053.3137         3993.8325       
  5147   107.9532    4045(64)          4054.3501         3994.8313       
  5148   107.9732    4022(63)          4054.4983         3994.8301       
  5149   107.9932    4068(64)          4054.7585         3994.8289       
  5150   108.0132    4045(64)          4056.1257         3995.8276       
  5151   108.0332    4033(64)          4057.6079         3996.8267       
  5152   108.0532    3993(63)          4058.1978         3996.8252       
  5153   108.0732    3929(63)          4058.8926         3996.8242       
  5154   108.0932    3986(63)          4060.6875         3997.8230       
  5155   108.1132    4182(65)          4061.5779         3997.8218       
  5156   108.1332    4045(64)          4063.5564         3998.8206       
  5157   108.1532    4167(65)          4064.6165         3998.8196       
  5158   108.1732    4172(65)          4065.7478         3998.8186       
  5159   108.1932    4024(63)          4066.9409         3998.8174       
  5160   108.2132    4006(63)          4069.1838         3999.8164       
  5161   108.2332    4057(64)          4070.4629         3999.8154       
  5162   108.2532    4009(63)          4071.7644         3999.8142       
  5163   108.2732    4023(63)          4074.0706         4000.8130       
  5164   108.2932    4049(64)          4076.3652         4001.8120       
  5165   108.3132    4205(65)          4077.6274         4001.8110       
  5166   108.3332    4017(63)          4078.8381         4001.8101       
  5167   108.3532    4143(64)          4079.9746         4001.8091       
  5168   108.3732    4101(64)          4080.8977         4001.8083       
  5169   108.3932    4158(64)          4082.8213         4002.8074       
  5170   108.4132    4145(64)          4084.6057         4003.8064       
  5171   108.4332    4144(64)          4085.2312         4003.8054       
  5172   108.4532    4182(65)          4085.6787         4003.8044       
  5173   108.4732    4054(64)          4086.9336         4004.8035       
  5174   108.4932    4150(64)          4086.9714         4004.8027       
  5175   108.5132    4114(64)          4086.8091         4004.8018       
  5176   108.5332    4298(66)          4087.4312         4005.8008       
  5177   108.5532    4054(64)          4086.8384         4005.8000       
  5178   108.5732    4050(64)          4087.0366         4006.7991       
  5179   108.5932    4050(64)          4086.0356         4006.7981       
  5180   108.6132    4193(65)          4084.8484         4006.7974       
  5181   108.6332    3972(63)          4084.4922         4007.7964       
  5182   108.6532    3980(63)          4083.9849         4008.7959       
  5183   108.6732    4149(64)          4082.3469         4008.7949       
  5184   108.6932    4083(64)          4080.5986         4008.7942       
  5185   108.7132    4177(65)          4078.7622         4008.7935       
  5186   108.7332    4031(63)          4078.8574         4010.7927       
  5187   108.7532    3941(63)          4076.9026         4010.7920       
  5188   108.7732    4132(64)          4074.9180         4010.7913       
  5189   108.7932    4117(64)          4072.9175         4010.7905       
  5190   108.8132    4032(63)          4070.9197         4010.7898       
  5191   108.8332    3957(63)          4070.9360         4012.7891       
  5192   108.8532    3937(63)          4068.9795         4012.7883       
  5193   108.8732    4051(64)          4067.0593         4012.7878       
  5194   108.8932    3954(63)          4065.1858         4012.7871       
  5195   108.9132    4002(63)          4065.3657         4014.7866       
  5196   108.9332    4181(65)          4063.6045         4014.7856       
  5197   108.9532    4116(64)          4061.9094         4014.7852       
  5198   108.9732    3936(63)          4060.2830         4014.7847       
  5199   108.9932    3927(63)          4059.7297         4015.7839       
  5200   109.0132    4014(63)          4058.2515         4015.7834       
_pd_proc_number_of_points   5200
 
loop_                          
      _refln_index_h           
      _refln_index_k           
      _refln_index_l           
      _refln_mult              
      _pd_refln_phase_id       
      _refln_observed_status   
      _refln_F_squared_meas    
      _refln_F_squared_calc    
      _refln_phase_calc        
      _refln_d_spacing         
   1   0   1  4  1  o       3587.4553     3816.3088   12.59   6.91366
   2   0   0  2  1  o       3987.2634     3195.9268  196.83   6.13325
   2   0   1  4  1  o      11641.0137    12759.2373  192.98   4.94716
   0   1   1  4  1  o      26084.8691    24316.6973  192.46   4.22056
   0   0   2  2  1  o        735.6566      592.0318  190.93   4.18485
   1   1   1  8  1  o      14849.8867    15513.0840  192.62   3.99093
   1   0   2  4  1  o       6095.1792     5886.9004  358.00   3.96070
   2   1   0  4  1  o      45297.5547    44232.6055    4.82   3.82228
   3   0   1  4  1  o      11493.8779    13817.0098  193.57   3.67387
   2   1   1  8  1  o       4858.2007     4699.1572   13.72   3.47687
   2   0   2  4  1  o         37.1631       30.0229   14.99   3.45683
   1   1   2  8  1  o     126483.2500   124769.7031  189.94   3.07715
   4   0   0  2  1  o     168666.3438   168494.4688  189.62   3.06663
   3   1   1  8  1  o         53.8242       56.7296   15.69   2.93671
   3   0   2  4  1  o      94065.8906    96496.5781    9.13   2.92460
   4   0   1  4  1  o      12424.7158    17147.4102   13.32   2.87944
   2   1   2  8  1  o          3.1321        2.7854   41.75   2.82225
   1   0   3  4  1  o       8566.6650     7862.8984  192.60   2.72042
   4   1   0  4  1  o      69983.0547    63983.5078   12.23   2.59763
   2   0   3  4  1  o      12276.9482    13180.6279  193.05   2.53951
   3   1   2  8  1  o     117916.6797   117261.8750   11.70   2.50961
   4   1   1  8  1  o       2814.0154     3244.5544   13.54   2.48089
   4   0   2  4  1  o        144.3578      170.8595   11.15   2.47358
   0   2   0  2  1  o     236018.1406   245237.1562  191.03   2.44373
   0   1   3  4  1  o       5553.5015     5638.7441  196.28   2.42294
   1   1   3  8  1  o       8835.9209     8544.2197   15.56   2.37701
   5   0   1  4  1  o       4611.5957     4779.4375   14.49   2.35425
   3   0   3  4  1  o      16693.3086    17838.8457   14.29   2.30455
   1   2   1  8  1  o       2148.9993     2295.1646  195.05   2.30404
   2   2   0  4  1  o       2156.6562     1524.8000   21.12   2.27017
   2   1   3  8  1  o       2682.3821     2856.9673   14.84   2.25347
   4   1   2  8  1  o        353.8874      192.1293  193.58   2.20702
   2   2   1  8  1  o       8589.7920     6752.2056   15.72   2.19100
   5   1   1  8  1  o       7895.6479     8545.5225   14.44   2.12101
   5   0   2  4  1  o        194.1219      212.6465  141.17   2.11643
   0   2   2  4  1  o        363.2088      385.0199   12.79   2.11028
   0   0   4  2  1  o     210831.7656   209329.8594  191.58   2.09243
   3   1   3  8  1  o       1411.8484     1540.4446  191.25   2.08445
   1   2   2  8  1  o       5018.1787     5620.4004  180.47   2.07973
   4   0   3  4  1  o       5337.3105     7380.2793   15.24   2.06367
   1   0   4  4  1  o         49.8230       68.3365   22.33   2.06263
   6   0   0  2  1  o        381.4422      300.5107   62.01   2.04442
   3   2   1  8  1  o       7695.2749     8394.9336   15.84   2.03472
   2   2   2  8  1  o         30.1453       16.5435  197.82   1.99547
   6   0   1  4  1  o        796.2658      615.4752  194.10   1.98603
   2   0   4  4  1  o       1726.8505     1168.0988   22.71   1.98035
   5   1   2  8  1  o      36845.3633    36455.3867    7.56   1.94216
   4   2   0  4  1  o     121859.3750   119496.5391   11.07   1.91114
   4   1   3  8  1  o        122.9950      117.6522   28.34   1.90114
   1   1   4  8  1  o        533.7761      510.4930   12.58   1.90033
   6   1   0  4  1  o      88079.3438    87932.3281  190.68   1.88606
   3   2   2  8  1  o      70915.4531    70672.8906  190.50   1.87525
   4   2   1  8  1  o      11300.7471    10929.1104  195.28   1.86318
   3   0   4  4  1  o        283.8195      274.1831  190.86   1.86269
   5   0   3  4  1  o       1130.7460     1218.6764  201.14   1.84232
   6   1   1  8  1  o       6106.2500     6652.1484  197.19   1.83992
   6   0   2  4  1  o         22.7995       24.5368  201.62   1.83693
   2   1   4  8  1  o      30160.8848    32164.7949  186.75   1.83541
   1   2   3  8  1  o       6214.6748     5465.8999   14.24   1.81796
   2   2   3  8  1  o       9041.2607     8200.1533   14.92   1.76087
   3   1   4  8  1  o        790.0410      696.2835  194.74   1.74057
   4   2   2  8  1  o        130.5777      128.6400  192.48   1.73844
   4   0   4  4  1  o     107274.4453   105415.6797   11.49   1.72841
   5   1   3  8  1  o       6054.9634     5857.8374  196.68   1.72391
   6   1   2  8  1  o         77.5997       71.2702   11.74   1.71950
   7   0   1  4  1  o        215.0449      185.6494   22.62   1.71517
   5   2   1  8  1  o       1266.0509     2781.9446  196.74   1.69546
   3   2   3  8  1  o       7236.7417    11825.6523  196.11   1.67661
   1   0   5  4  1  o         31.1491       42.5631  223.63   1.65857
   6   0   3  4  1  o        111.2113       91.2539    2.13   1.64905
   4   1   4  8  1  o      38407.7930    37224.6797  194.36   1.62952
   7   1   1  8  1  o       6621.8496     6428.8271  196.90   1.61841
   7   0   2  4  1  o     151992.0781   148986.3594  192.70   1.61637
   2   0   5  4  1  o       1757.7618     1718.1281   23.38   1.61487
   5   2   2  8  1  o        511.8111      457.7529  342.51   1.59984
   0   3   1  4  1  o      11852.3213    10514.4883   16.24   1.59914
   5   0   4  4  1  o         93.4851       87.5353  200.03   1.59202
   0   2   4  4  1  o     161067.7969   155558.5156   12.80   1.58940
   1   3   1  8  1  o       5764.5894     5573.8306   16.93   1.58572
   0   1   5  4  1  o      20930.9414    20232.4746   15.26   1.58363
   4   2   3  8  1  o       4632.7930     4873.4702  197.09   1.57668
   1   2   4  8  1  o         27.4754       29.0635  208.86   1.57622
   2   3   0  4  1  o      29489.1758    31481.8965  187.49   1.57455
   1   1   5  8  1  o       6650.4434     7156.1196   15.37   1.57060
   6   2   0  4  1  o        155.3049      175.1121  296.88   1.56805
   6   1   3  8  1  o       3462.2690     5062.6128  197.44   1.56251
   3   0   5  4  1  o       2111.3503     1808.1036   20.91   1.54915
   2   3   1  8  1  o       1729.0680     1699.9221  198.28   1.54741
   6   2   1  8  1  o        339.6222      523.0654   15.20   1.54123
   2   2   4  8  1  o        435.3887      566.5836  208.15   1.53857
   7   1   2  8  1  o      10420.1094    11720.8906  193.23   1.53462
   2   1   5  8  1  o       1591.9301     1782.5806  199.01   1.53334
   8   0   0  2  1  o      19788.9004    22160.9141    7.71   1.53331
   5   1   4  8  1  o         29.5127       25.6796  178.04   1.51374
   8   0   1  4  1  o       6561.1992     6582.1587  195.98   1.50821
   1   3   2  8  1  o      66070.9219    67431.0391   12.52   1.50667
   3   3   1  8  1  o         65.8124       72.1929  196.36   1.48929
   7   0   3  4  1  o        584.2005      496.9979  199.26   1.48392
   3   2   4  8  1  o        286.2964      232.3792   11.88   1.48141
   3   1   5  8  1  o        507.2457      461.6143    9.62   1.47674
   2   3   2  8  1  o          1.3264        1.5390  333.03   1.47369
   5   2   3  8  1  o        475.4078      546.7092   26.47   1.47110
   4   0   5  4  1  o       9901.8730    10746.2012  196.60   1.46930
   6   2   2  8  1  o         11.5099       12.1468   26.36   1.46835
   8   1   0  4  1  o      55111.5859    52803.7383  193.62   1.46301
   6   0   4  4  1  o        211.1922      201.0617  311.44   1.46230
   8   1   1  8  1  o       3118.7246     2562.1082   18.57   1.44116
   8   0   2  4  1  o          0.4871        0.4044  111.57   1.43972
   4   3   0  4  1  o      37298.5273    31353.4082  195.15   1.43873
   3   3   2  8  1  o      62814.5352    60896.1992  194.36   1.42323
   7   1   3  8  1  o      12012.4336    12243.8984   16.27   1.41992
   4   3   1  8  1  o       1778.4792     1837.1489  196.32   1.41793
   4   2   4  8  1  o      82838.5781    83956.7422  192.49   1.41113
   4   1   5  8  1  o       5196.0054     5343.0352  194.71   1.40709
   0   3   3  4  1  o       2371.7061     2442.5420   20.57   1.40685
   7   2   1  8  1  o        106.7494      111.4952  206.05   1.40389
   6   1   4  8  1  o      59233.3477    63256.4375   12.06   1.40094
   1   3   3  8  1  o       2643.1716     2942.8267  200.57   1.39769
   0   0   6  2  1  o       1837.9464     2034.8365   14.99   1.39495
   1   0   6  4  1  o       3147.1108     5965.3931  183.76   1.38602
   5   0   5  4  1  o       3080.0193     4001.4338  195.56   1.38273
   8   1   2  8  1  o        108.1313      123.1569   15.00   1.38104
   1   2   5  8  1  o         15.6743       23.5748   54.42   1.37234
   2   3   3  8  1  o        636.2477     1174.3594  198.74   1.37124
   6   2   3  8  1  o          6.3455       62.3271  181.98   1.36694
   4   3   2  8  1  o         76.0384       95.7675   16.51   1.36057
   2   0   6  4  1  o         47.8436       58.3449  202.70   1.36021
   7   2   2  8  1  o     119944.4766   116646.2812   13.71   1.34815
   2   2   5  8  1  o        809.0048      789.9326  209.06   1.34728
   9   0   1  4  1  o       4130.5332     4064.4812  198.98   1.34523
   8   0   3  4  1  o       2321.0352     2279.8958  198.43   1.34374
   7   0   4  4  1  o        856.8028      840.6454   15.11   1.34346
   5   3   1  8  1  o       3858.4749     3707.1926  197.91   1.33967
   5   2   4  8  1  o         53.4598       50.5897   22.99   1.33392
   1   1   6  8  1  o      57164.2578    54256.0195   13.22   1.33344
   5   1   5  8  1  o       4189.4419     4078.8408  196.67   1.33051
   3   3   3  8  1  o       1219.3953     1188.0013   13.23   1.33031
   3   0   6  4  1  o      44190.7969    46743.9727  192.18   1.32023
   2   1   6  8  1  o         19.1240       22.8284  345.00   1.31041
   3   2   5  8  1  o       1006.1526     1166.4435  203.36   1.30840
   8   2   0  4  1  o      19656.4531    20554.5840  188.74   1.29882
   9   1   1  8  1  o          6.8361        7.4235   62.59   1.29699
   9   0   2  4  1  o       2605.0176     2901.0842   15.30   1.29595
   8   1   3  8  1  o       3264.1636     3653.7827   16.87   1.29567
   7   1   4  8  1  o         27.6050       31.0191   17.59   1.29541
   6   0   5  4  1  o       1972.9818     2222.8494   14.10   1.29517
   5   3   2  8  1  o      27077.0332    29171.4316  189.58   1.29097
   8   2   1  8  1  o       4955.8530     4931.0073   17.21   1.28346
   4   3   3  8  1  o         62.6282       61.4785  213.94   1.27871
   1   3   4  8  1  o        327.9093      321.5412  194.70   1.27847
   3   1   6  8  1  o      50461.1641    47947.7305  195.11   1.27455
   6   3   0  4  1  o      60977.3516    58005.4805   12.61   1.27409
   4   0   6  4  1  o        771.2130      791.5352  194.19   1.26976
   7   2   3  8  1  o        329.3370      346.8353   21.01   1.26838
   6   3   1  8  1  o       2294.9199     2539.9087   21.82   1.25958
   4   2   5  8  1  o       7074.6499     7817.9556   17.93   1.25922
   2   3   4  8  1  o      24999.7852    27607.9395    8.87   1.25813
   6   2   4  8  1  o        352.6706      395.8361  157.42   1.25480
   9   1   2  8  1  o      21822.2012    24543.7988  188.13   1.25266
   6   1   5  8  1  o       1948.1353     2176.9238   23.90   1.25196
   8   2   2  8  1  o          1.3096        0.9768  336.44   1.24045
   8   0   4  4  1  o      22787.4609    19374.9160  189.08   1.23679
   4   1   6  8  1  o        884.6379      684.7741   17.37   1.22896
  10   0   0  2  1  o      24867.0293    20765.6719   11.32   1.22665
   3   3   4  8  1  o        456.2310      384.6872   17.23   1.22629
   9   0   3  4  1  o       1494.9059     1303.1401   26.22   1.22462
   0   4   0  2  1  o     117650.2812   109431.1797   14.37   1.22187
   5   3   3  8  1  o       2600.9944     2483.6238   20.47   1.22043
   6   3   2  8  1  o         54.4357       52.7089  193.55   1.21886
  10   0   1  4  1  o       4011.0247     3936.9077   19.88   1.21369
   5   0   6  4  1  o        864.0627      857.3571  355.11   1.21263
   0   2   6  4  1  o       1608.5391     1626.1971  195.96   1.21147
   7   0   5  4  1  o          8.8498        9.4841  331.35   1.21043
   1   2   6  8  1  o       5034.7026     6246.7842    5.39   1.20560
   5   2   5  8  1  o       2521.5056     2839.4431   16.79   1.20344
   1   4   1  8  1  o        820.6010      921.5718   19.42   1.20322
   8   1   4  8  1  o      35034.2148    37413.3945   14.93   1.19900
   2   4   0  4  1  o        154.4347      162.2292  221.72   1.19832
   1   0   7  4  1  o       6106.7095     5738.6348   16.05   1.19003
  10   1   0  4  1  o      70540.0859    66215.9766   15.01   1.18975
   2   2   6  8  1  o         37.0419       34.7069   25.73   1.18851
   9   1   3  8  1  o         36.9404       34.6480  215.36   1.18790
   2   4   1  8  1  o       1394.4492     1317.8746  203.49   1.18622
   4   3   4  8  1  o      22127.2109    21060.2559   16.62   1.18552
   7   3   1  8  1  o       3539.9666     3523.5615   19.62   1.18122
   9   2   1  8  1  o       2593.1641     2604.7842   20.91   1.17847
  10   1   1  8  1  o         87.2096       88.0346  181.12   1.17791
   8   2   3  8  1  o       1679.3927     1702.4424   19.71   1.17747
   7   2   4  8  1  o        668.8067      679.2453  196.03   1.17728
  10   0   2  4  1  o         23.7879       24.1941  190.47   1.17712
   5   1   6  8  1  o      25064.1094    25535.9219  190.22   1.17695
   7   1   5  8  1  o        444.2101      458.7090   28.93   1.17493
   2   0   7  4  1  o       5838.3281     6118.7061   16.11   1.17358
   0   4   2  4  1  o        165.9709      176.8888  196.16   1.17289
   1   4   2  8  1  o       5456.4609     6800.2236    5.92   1.16757
   0   3   5  4  1  o       9586.7920    11938.5732  197.50   1.16750
   1   3   5  8  1  o       3471.5366     3565.0576  198.04   1.16225
   3   2   6  8  1  o      39188.9258    39717.8867   13.01   1.16156
   0   1   7  4  1  o         34.3434       34.7225  121.25   1.16142
   3   4   1  8  1  o       2864.7917     2782.1179  200.91   1.15942
   6   3   3  8  1  o       2318.7893     2227.0190   21.03   1.15896
   1   1   7  8  1  o        955.3687      863.6531  209.30   1.15625
   6   0   6  4  1  o         37.5815       30.7295   37.82   1.15228
   2   4   2  8  1  o          4.0698        3.3201   26.75   1.15202
   3   0   7  4  1  o       9873.1162     8572.9668  198.65   1.14761
   7   3   2  8  1  o       8472.0039     7350.9897   15.11   1.14744
   2   3   5  8  1  o        847.1078      731.4040   23.38   1.14690
   9   2   2  8  1  o       2682.3550     2252.5088  196.26   1.14491
  10   1   2  8  1  o        112.3073       94.1124  197.42   1.14440
   6   2   5  8  1  o       2359.6443     1977.3706  194.87   1.14438
   9   0   4  4  1  o          2.2601        2.0389  209.63   1.14204
   2   1   7  8  1  o        690.0482      657.4005  199.65   1.14114
   5   3   4  8  1  o         45.8515       45.9333    4.56   1.13863
   4   4   0  4  1  o      62124.6680    63831.0117  193.88   1.13508
   8   0   5  4  1  o       6213.8667     6530.7329   17.53   1.13067
   3   4   2  8  1  o      38098.7891    40548.2500   13.22   1.12743
   4   2   6  8  1  o        635.4278      680.5931   14.99   1.12673
   4   4   1  8  1  o       3713.1389     4004.6541   19.54   1.12479
  10   0   3  4  1  o        819.3275      861.7092   25.88   1.12291
   3   3   5  8  1  o        242.4189      253.6029  191.06   1.12263
   6   1   6  8  1  o        407.1003      416.5315  194.13   1.12153
   3   1   7  8  1  o       2799.9783     2742.6318   13.91   1.11723
   8   3   0  4  1  o      34779.4609    33809.8789   15.45   1.11656
   1   4   3  8  1  o       2854.5798     2669.9966  197.43   1.11460
   4   0   7  4  1  o        906.6501      833.3726  202.94   1.11399
   9   1   4  8  1  o         19.0449       16.5384  351.47   1.11208
   8   3   1  8  1  o       1204.1626      984.3030  202.90   1.10676
  11   0   1  4  1  o       3576.9800     3067.1338   18.70   1.10537
   8   2   4  8  1  o      19869.1270    18081.2441   10.04   1.10351
   8   1   5  8  1  o        292.6216      273.0210  214.37   1.10158
   2   4   3  8  1  o       2698.8555     2522.2166  199.45   1.10105
   7   3   3  8  1  o       7889.2158     7494.3633  198.34   1.09705
  10   2   0  4  1  o      19249.2246    18475.4824  192.15   1.09629
   4   4   2  8  1  o         78.1656       76.0023   15.17   1.09550
   9   2   3  8  1  o        682.7702      671.9900  210.98   1.09484
  10   1   3  8  1  o         48.9453       48.5912   25.68   1.09439
   7   0   6  4  1  o      75987.2969    77447.3672   15.20   1.09138
   4   3   5  8  1  o       3701.8677     3769.1245   16.39   1.09110
   6   3   4  8  1  o      44570.6289    45187.4727  193.71   1.08823
  10   2   1  8  1  o       2914.0723     2971.9548  201.09   1.08700
   5   2   6  8  1  o       1039.1603     1065.1409  179.05   1.08625
   4   1   7  8  1  o        616.3682      632.2120    8.47   1.08614
   7   2   5  8  1  o         11.8376       12.2850  161.27   1.08466
   5   4   1  8  1  o        583.8326      606.7878   23.57   1.08450
   3   4   3  8  1  o       4384.5396     4653.9556   20.08   1.07952
   8   3   2  8  1  o         76.0259       80.1862  196.81   1.07882
  11   1   1  8  1  o       1248.1877     1309.2466   20.74   1.07814
  11   0   2  4  1  o      69282.1875    72541.0000   14.76   1.07754
   5   0   7  4  1  o        158.7203      173.8206  168.46   1.07482
   1   2   7  8  1  o       3713.7944     4783.0493  196.85   1.06991
   7   1   6  8  1  o       5566.6724     6043.3442   15.71   1.06514
  10   2   2  8  1  o         22.3887       23.6797   11.42   1.06050
  10   0   4  4  1  o      17211.8574    17160.2383  192.44   1.05822
   5   4   2  8  1  o       1213.0439     1208.3690  180.19   1.05818
   2   2   7  8  1  o       4689.8481     4644.2227  197.07   1.05791
   9   0   5  4  1  o       3751.4521     3655.0193   18.75   1.05691
   1   3   6  8  1  o      38835.5547    37500.1719  194.86   1.05567
   0   4   4  4  1  o      84757.8672    81786.5781  195.49   1.05514
   5   3   5  8  1  o       2265.9592     2188.4739   19.02   1.05421
  11   1   2  8  1  o       3635.9875     3521.9255  200.82   1.05227
   4   4   3  8  1  o       1879.9232     1821.4407   21.34   1.05140
   1   4   4  8  1  o          1.7334        1.6789  103.21   1.05126
   5   1   7  8  1  o       1206.3181     1141.7913   25.20   1.04973
   6   4   0  4  1  o        919.2232      844.0939  173.48   1.04882
   0   0   8  2  1  o      86114.2109    73724.9844   15.58   1.04621
   2   3   6  8  1  o         73.8897       63.2819  180.30   1.04413
   1   0   8  4  1  o          7.5002        6.5450  277.25   1.04243
   6   2   6  8  1  o         14.8252       12.9926  230.11   1.04223
   6   4   1  8  1  o        455.9984      420.1750  197.17   1.04068
   2   4   4  8  1  o         55.7666       53.2623   61.94   1.03986
   3   2   7  8  1  o       6643.2803     6657.3394   19.65   1.03877
   9   3   1  8  1  o          3.3580        3.5276  303.05   1.03730
   8   3   3  8  1  o       1719.2689     1832.7596  199.38   1.03662
   7   3   4  8  1  o         17.8872       19.1144  199.59   1.03649
  11   0   3  4  1  o       3013.6050     3268.9209  199.48   1.03548
   9   2   4  8  1  o          1.1549        1.2656   33.21   1.03463
  10   1   4  8  1  o      44472.1289    48997.3438  196.12   1.03425
   9   1   5  8  1  o         22.4909       25.4182  356.70   1.03304
   6   0   7  4  1  o        842.5161      972.4442  192.04   1.03212
   8   0   6  4  1  o         20.3072       23.5463  355.87   1.03183
   2   0   8  4  1  o         44.2101       51.4766  240.52   1.03132
   8   2   5  8  1  o       5238.0288     5275.6602  198.38   1.02615
   3   3   6  8  1  o      30488.1816    30817.5566   16.85   1.02572
  12   0   0  2  1  o       4763.1670     5350.6548  186.47   1.02221
   3   4   4  8  1  o        149.3254      168.9549  194.29   1.02167
  10   2   3  8  1  o        558.8156      615.9085  207.72   1.02034
   1   1   8  8  1  o        812.1537      863.4550  196.37   1.01950
   5   4   3  8  1  o         23.7602       24.4283  267.80   1.01827
   6   4   2  8  1  o          1.0321        1.0518  237.04   1.01736
  12   0   1  4  1  o         78.2284       80.3584  357.87   1.01467
   9   3   2  8  1  o      21628.1875    22349.3438   10.20   1.01420
   6   3   5  8  1  o        737.4167      765.9111  210.44   1.01383
   4   2   7  8  1  o        573.3751      597.1358   24.51   1.01364
   3   0   8  4  1  o        599.7411      625.2875   14.37   1.01356
  11   1   3  8  1  o       3719.7551     3904.5278  198.45   1.01300
   6   1   7  8  1  o       1715.1356     1687.7537   20.61   1.00984
   8   1   6  8  1  o        628.7355      612.6487  197.39   1.00958
   2   1   8  8  1  o      22671.9727    21719.7793   10.82   1.00909
  11   2   1  8  1  o       2528.4602     2357.7830  199.70   1.00713
   4   3   6  8  1  o        437.0832      418.3037  199.30   1.00150
  12   1   0  4  1  o      21135.8223    20410.2559   12.59   1.00056
   4   4   4  8  1  o      51273.6562    50021.2109   14.91   0.99773
   7   2   6  8  1  o      66243.8281    64865.5117  195.96   0.99651
   7   4   1  8  1  o         30.6113       30.3465   35.75   0.99517
  12   1   1  8  1  o       2022.9272     2071.0854  202.29   0.99349
  12   0   2  4  1  o          2.6228        2.7150  217.34   0.99301
   3   1   8  8  1  o        867.7560      909.0787   19.19   0.99244
   4   0   8  4  1  o      42511.7812    45059.7422  194.99   0.99017
  10   0   5  4  1  o       4566.5879     4805.6304  200.34   0.98943
   7   0   7  4  1  o        380.4328      390.5248   21.50   0.98767
  11   2   2  8  1  o      61268.0039    61636.0547  195.50   0.98594
   8   3   4  8  1  o      25408.3398    25470.1777  196.50   0.98508
  11   0   4  4  1  o        369.6014      371.2490  196.78   0.98411
   5   2   7  8  1  o        291.5076      293.1428  356.88   0.98386
   1   4   5  8  1  o          7.7948        7.8436  259.34   0.98374
   6   4   3  8  1  o         13.8801       14.0583  358.15   0.98174
  10   3   0  4  1  o      44490.4297    44801.0117  196.59   0.97994
   9   3   3  8  1  o         10.0523       10.0914   51.01   0.97890
   9   0   6  4  1  o       1476.7179     1468.8145  197.71   0.97487
   7   4   2  8  1  o      66059.7266    65727.3516  196.14   0.97471
   2   4   5  8  1  o         44.1793       44.0036   89.96   0.97438
  10   3   1  8  1  o        165.3035      165.6370    7.18   0.97329
  12   1   2  8  1  o         25.2491       25.3253  191.51   0.97313
   5   3   6  8  1  o      21615.0137    21739.6758   11.98   0.97274
   7   3   5  8  1  o        229.5473      233.1086  213.38   0.97161
  10   2   4  8  1  o      15165.1074    15483.4482   13.22   0.97108
   0   5   1  4  1  o       3749.2915     3835.0747  200.51   0.97089
   4   1   8  8  1  o      11642.5635    11962.9189   18.49   0.97046
   9   2   5  8  1  o       2595.2366     2677.0010  199.85   0.97007
  10   1   5  8  1  o        702.9717      727.0559   10.47   0.96976
   5   4   4  8  1  o          8.7254        9.0539  214.80   0.96929
   7   1   7  8  1  o       9517.7354     9898.0430  198.60   0.96810
   1   5   1  8  1  o       1049.5254     1090.6903  203.91   0.96787
   2   5   0  4  1  o      23633.2227    24131.7012   11.40   0.96531
  11   1   4  8  1  o        106.9808      108.8035   19.78   0.96474
   0   3   7  4  1  o         43.5440       43.9817  329.51   0.96393
   5   0   8  4  1  o         36.8515       36.2884   34.43   0.96236
   0   2   8  4  1  o      63701.8711    62089.7695  196.31   0.96178
   1   3   7  8  1  o        216.4315      209.2250   43.16   0.96096
  12   0   3  4  1  o         65.1696       63.2265  208.68   0.95981
   3   4   5  8  1  o        387.1985      377.1871   29.80   0.95937
   2   5   1  8  1  o        337.4113      330.0140   26.04   0.95895
   1   2   8  8  1  o          8.6996        8.5184  141.63   0.95884
   9   1   6  8  1  o      20408.9238    20116.6113   10.85   0.95603
   8   4   0  4  1  o      17094.0254    16786.9824   11.56   0.95557
  10   3   2  8  1  o         65.2033       63.1645   19.02   0.95413
  11   2   3  8  1  o       2638.0342     2541.4324   20.42   0.95342
   2   3   7  8  1  o        361.8403      348.2051   22.17   0.95224
   6   2   7  8  1  o        827.6288      803.0363   12.77   0.95079
   8   2   6  8  1  o         35.5222       34.5358  181.08   0.95057
   2   2   8  8  1  o         25.8273       25.2357   86.41   0.95017
   8   4   1  8  1  o       2514.7656     2498.0225  199.94   0.94940
   1   5   2  8  1  o      32426.4160    32632.5566  195.77   0.94902
   3   5   1  8  1  o          0.0000      118.6192   17.28   0.94463
   5   1   8  8  1  o          0.0000      222.0405    8.26   0.94423
   7   4   3  8  1  o          0.0000      144.2361  205.02   0.94325
  12   2   0  4  1  o          0.0000     5444.0439    7.89   0.94303
   8   0   7  4  1  o          0.0000      107.4390   33.05   0.94288
  12   1   3  8  1  o          0.0000     2411.1348  200.64   0.94182
   6   3   6  8  1  o          0.0000      346.8456   15.53   0.94075
   2   5   2  8  1  o          0.0000       10.6959  184.89   0.94061
   4   4   5  8  1  o          0.0000     3551.5391  201.02   0.93946
   3   3   7  8  1  o          0.0000     2345.3491  195.31   0.93821
  13   0   1  4  1  o          0.0000        5.1872   36.96   0.93764
   6   4   4  8  1  o          0.0000     1102.1678  359.33   0.93763
  12   2   1  8  1  o          0.0000      124.9871  182.94   0.93710
   3   2   8  8  1  o          0.0000      580.3844  195.07   0.93623
   9   3   4  8  1  o          0.0000       35.3347  182.43   0.93515
   8   4   2  8  1  o          0.0000        4.6077  182.67   0.93159
   6   0   8  4  1  o          0.0000      957.8716  178.94   0.93135
   4   5   0  4  1  o          0.0000    11955.1895   18.85   0.93132
   8   3   5  8  1  o          0.0000       40.1979   66.56   0.92888
  11   0   5  4  1  o          0.0000     1299.7666  200.57   0.92806
   1   0   9  4  1  o          0.0000      531.0385  190.04   0.92731
   3   5   2  8  1  o          0.0000    25537.7227   17.77   0.92708
   8   1   7  8  1  o          0.0000     2567.5195  198.10   0.92581
   4   5   1  8  1  o          0.0000     1014.3375   19.23   0.92561
  10   3   3  8  1  o          0.0000        5.8588  225.96   0.92456
   0   5   3  4  1  o          0.0000      795.2448  205.87   0.92251
 
# The following lines are used to test the character set of files sent by
# network email or other means. They are not part of the CIF data set.   
# abcdefghijklmnopqrstuvwxyzABCDEFGHIJKLMNOPQRSTUVWXYZ0123456789         
# !@#$%^&*()_+{}:"~<>?|\-=[];'`,./ 



_exptl_crystal_density_diffrn
5.371
_refine_ls_goodness_of_fit_all
1.49
_chemical_formula_iupac
'Eu I2'
_pd_spec_size_thick
0.3
_cell_formula_units_Z
4
_pd_meas_scan_method
'step'
_pd_proc_ls_profile_function
'pseudo-voigt'
_pd_proc_2theta_range_min
5.0311
_pd_char_particle_morphology
'powder'
_chemical_formula_moiety
'Eu I2'
_cell_length_a
12.2665(11)
_cell_length_b
4.8875(4)
_pd_proc_info_excluded_regions
'No excluded regions'
_cell_length_c
8.3697(8)
_pd_proc_2theta_range_inc
0.020000
_pd_proc_ls_prof_wR_factor
1.9118
_pd_prep_pressure
101.3
_pd_block_diffractogram_id
rietdata_EuI2_IV
_pd_spec_mounting
;
capillary tube
;
_diffrn_radiation_type
'Cu K\a~1~'
_chemical_formula_weight
405.76
_computing_molecular_graphics
'ATOMS (Dowty, 2005)'
_refine_ls_number_restraints
0
_computing_structure_refinement
'FULLPROF (Rodriguez-Carvajal 1993)'
_refine_ls_weighting_details
'Standard least squares refinement'
_pd_proc_ls_background_function
'fourier-background'
_refine_ls_number_constraints
0
_refine_ls_weighting_scheme
sigma
_cell_angle_gamma
90.0000
_cell_measurement_temperature
293
_pd_meas_2theta_range_inc
0.020000
_computing_data_reduction
'WinXPow (Stoe & Cie, 2005)'
_computing_cell_refinement
'WinXPow (Stoe & Cie, 2005)'
_computing_publication_material
'enCIFer (Allen <i>et al.</i>,  2004)'
_pd_char_colour
'light yellow'
_pd_proc_ls_prof_R_factor
1.4821
_diffrn_radiation_monochromator
Ge
_chemical_name_systematic
;
europium(II) diiodide
;
_computing_structure_solution
'FULLPROF (Rodriguez-Carvajal 1993)'
_pd_meas_number_of_points
5200
_cell_volume
501.78(8)
_pd_prep_temperature
200
_exptl_crystal_F_000
676
_pd_proc_ls_prof_wR_expected
1.2875
_pd_spec_size_equat
0.3
_diffrn_ambient_temperature
293(2)
_exptl_absorpt_coefficient_mu
184.46
_chemical_name_common
'europium iodide'
_space_group_name_Hall
'-P 2ac 2n'
_space_group_name_H-M_alt
'P n m a'
_diffrn_radiation_wavelength
1.540590
_pd_spec_shape
'cylinder'
_computing_data_collection
'WinXPow (Stoe & Cie, 2005)'
_pd_proc_2theta_range_max
109.0111
_refine_ls_extinction_method
none
_exptl_crystal_density_method
'not measured'
_diffrn_measurement_device_type
'Stoe STADI MP'
_cell_angle_alpha
90.0000
_refine_ls_number_parameters
20
_pd_meas_2theta_range_min
5.00500
_chemical_formula_sum
'Eu I2'
_pd_spec_size_axial
0.3
_refine_ls_matrix_type
full
_cell_angle_beta
90.0000
_pd_proc_info_data_reduction
'No data reduction'
_space_group_crystal_system
orthorhombic
_pd_meas_2theta_range_max
108.98500
_pd_proc_wavelength
1.540590
_pd_spec_mount_mode
'transmission'
_pd_proc_ls_pref_orient_corr
;
none
;
loop_
_symmetry_equiv_pos_site_id
_symmetry_equiv_pos_as_xyz
1 x,y,z
2 x+1/2,-y+1/2,-z+1/2
3 -x,y+1/2,-z
4 -x+1/2,-y,z+1/2
5 -x,-y,-z
6 -x+1/2,y+1/2,z+1/2
7 x,-y+1/2,z
8 x+1/2,y,-z+1/2

loop_
_atom_type_symbol
_atom_type_description
_atom_type_scat_dispersion_real
_atom_type_scat_dispersion_imag
_atom_type_scat_source
Eu Eu -7.71800 11.27600 International_Tables_Vol.C(1991)_Tables_6.1.1.4_and_6.1.1.5
I I -0.57900 6.83500 International_Tables_Vol.C(1991)_Tables_6.1.1.4_and_6.1.1.5

loop_
_atom_site_label
_atom_site_fract_x
_atom_site_fract_y
_atom_site_fract_z
_atom_site_u_iso_or_equiv
_atom_site_occupancy
Eu1 0.3287(3) 0.75000 0.6310(10) 0.0309(18) 1.00000
I1 0.3883(4) 0.25000 0.366(2) 0.000(2) 1.00000
I2 0.3852(4) 0.25000 0.879(2) 0.007(2) 1.00000

loop_
_geom_bond_atom_site_label_1
_geom_bond_atom_site_label_2
_geom_bond_site_symmetry_2
_geom_bond_distance
_geom_bond_publ_flag
Eu1 I1 . 3.379(12) yes
Eu1 I1 1_565 3.379(12) no
Eu1 I1 3_656 3.472(6) yes
Eu1 I1 4_565 3.311(12) yes
Eu1 I2 . 3.281(17) yes
Eu1 I2 1_565 3.281(17) no
Eu1 I2 4_564 3.365(17) yes

loop_
_geom_angle_atom_site_label_1
_geom_angle_atom_site_label_2
_geom_angle_atom_site_label_3
_geom_angle_site_symmetry_1
_geom_angle_site_symmetry_2
_geom_angle_site_symmetry_3
_geom_angle
_geom_angle_publ_flag
I1 Eu1 I1 . . 1_565 92.6(3) no
I1 Eu1 I1 . . 3_656 77.8(4) no
I1 Eu1 I1 . . 4_565 124.3(6) no
I1 Eu1 I2 . . . 80.3(3) no
I1 Eu1 I2 . . 1_565 155.2(8) no
I1 Eu1 I2 . . 4_564 76.0(4) no
I1 Eu1 I1 3_656 . 4_565 143.1(4) no
I1 Eu1 I2 3_656 . . 77.5(5) no
I1 Eu1 I2 3_656 . 4_564 141.7(5) no
I1 Eu1 I2 4_565 . . 78.1(4) no
I1 Eu1 I2 4_565 . 4_564 75.3(7) no
I2 Eu1 I2 . . 1_565 96.3(4) no
I2 Eu1 I2 . . 4_564 124.1(9) no
Eu1 I1 Eu1 1_545 . 3_646 102.2(3) no
Eu1 I1 Eu1 1_545 . 4_564 102.5(4) no
Eu1 I1 Eu1 3_646 . 4_564 144.0(3) no
Eu1 I2 Eu1 1_545 . 4_565 103.4(5) no



# powder data simulated using PLATON:

data_I_simulated_1.540590

_publcif_pd_cifplot 'simulated 2021-03-25'

