data_I

_pd_block_id      kcaofprofile

loop_
      _pd_proc_point_id                           
      _pd_proc_2theta_corrected           # one of 
      _pd_proc_energy_incident            # these 
      _pd_proc_d_spacing                  # three
      _pd_proc_intensity_net                     
      _pd_calc_intensity_net                     
1     10.000  .  .    410    312
2     10.020  .  .    418    312
3     10.040  .  .    359    311
4     10.060  .  .    358    311
5     10.080  .  .    397    311
6     10.100  .  .    421    310
7     10.120  .  .    357    310
8     10.140  .  .    365    309
9     10.160  .  .    368    309
10    10.180  .  .    380    308
11    10.200  .  .    370    308
12    10.220  .  .    385    308
13    10.240  .  .    397    307
14    10.260  .  .    414    307
15    10.280  .  .    387    306
16    10.300  .  .    371    306
17    10.320  .  .    397    305
18    10.340  .  .    362    305
19    10.360  .  .    372    305
20    10.380  .  .    358    304
21    10.400  .  .    374    304
22    10.420  .  .    408    303
23    10.440  .  .    367    303
24    10.460  .  .    405    302
25    10.480  .  .    376    302
26    10.500  .  .    374    302
27    10.520  .  .    351    301
28    10.540  .  .    377    301
29    10.560  .  .    333    300
30    10.580  .  .    363    300
31    10.600  .  .    333    300
32    10.620  .  .    350    299
33    10.640  .  .    343    299
34    10.660  .  .    349    298
35    10.680  .  .    391    298
36    10.700  .  .    363    297
37    10.720  .  .    352    297
38    10.740  .  .    332    297
39    10.760  .  .    363    296
40    10.780  .  .    374    296
41    10.800  .  .    366    295
42    10.820  .  .    376    295
43    10.840  .  .    358    295
44    10.860  .  .    362    294
45    10.880  .  .    343    294
46    10.900  .  .    369    293
47    10.920  .  .    334    293
48    10.940  .  .    393    293
49    10.960  .  .    395    292
50    10.980  .  .    350    292
51    11.000  .  .    374    291
52    11.020  .  .    318    291
53    11.040  .  .    359    291
54    11.060  .  .    372    290
55    11.080  .  .    348    290
56    11.100  .  .    363    289
57    11.120  .  .    362    289
58    11.140  .  .    319    289
59    11.160  .  .    356    288
60    11.180  .  .    326    288
61    11.200  .  .    335    287
62    11.220  .  .    363    287
63    11.240  .  .    312    287
64    11.260  .  .    350    286
65    11.280  .  .    349    286
66    11.300  .  .    400    285
67    11.320  .  .    371    285
68    11.340  .  .    368    285
69    11.360  .  .    367    284
70    11.380  .  .    328    284
71    11.400  .  .    361    283
72    11.420  .  .    319    283
73    11.440  .  .    341    283
74    11.460  .  .    308    282
75    11.480  .  .    305    282
76    11.500  .  .    372    281
77    11.520  .  .    323    281
78    11.540  .  .    344    281
79    11.560  .  .    324    280
80    11.580  .  .    316    280
81    11.600  .  .    338    279
82    11.620  .  .    334    279
83    11.640  .  .    328    279
84    11.660  .  .    346    278
85    11.680  .  .    332    278
86    11.700  .  .    341    278
87    11.720  .  .    326    277
88    11.740  .  .    342    277
89    11.760  .  .    304    276
90    11.780  .  .    318    276
91    11.800  .  .    333    276
92    11.820  .  .    338    275
93    11.840  .  .    338    275
94    11.860  .  .    327    274
95    11.880  .  .    338    274
96    11.900  .  .    319    274
97    11.920  .  .    326    273
98    11.940  .  .    302    273
99    11.960  .  .    335    273
100   11.980  .  .    295    272
101   12.000  .  .    317    272
102   12.020  .  .    305    271
103   12.040  .  .    300    271
104   12.060  .  .    326    271
105   12.080  .  .    301    270
106   12.100  .  .    303    270
107   12.120  .  .    331    270
108   12.140  .  .    315    269
109   12.160  .  .    318    269
110   12.180  .  .    349    268
111   12.200  .  .    334    268
112   12.220  .  .    299    268
113   12.240  .  .    326    267
114   12.260  .  .    317    267
115   12.280  .  .    331    267
116   12.300  .  .    301    266
117   12.320  .  .    296    266
118   12.340  .  .    312    266
119   12.360  .  .    270    265
120   12.380  .  .    292    265
121   12.400  .  .    314    264
122   12.420  .  .    270    264
123   12.440  .  .    280    264
124   12.460  .  .    327    263
125   12.480  .  .    289    263
126   12.500  .  .    335    263
127   12.520  .  .    302    262
128   12.540  .  .    304    262
129   12.560  .  .    277    262
130   12.580  .  .    326    261
131   12.600  .  .    296    261
132   12.620  .  .    282    260
133   12.640  .  .    319    260
134   12.660  .  .    293    260
135   12.680  .  .    296    259
136   12.700  .  .    292    259
137   12.720  .  .    280    259
138   12.740  .  .    338    258
139   12.760  .  .    324    258
140   12.780  .  .    295    258
141   12.800  .  .    302    257
142   12.820  .  .    291    257
143   12.840  .  .    270    257
144   12.860  .  .    293    256
145   12.880  .  .    313    256
146   12.900  .  .    295    255
147   12.920  .  .    321    255
148   12.940  .  .    286    255
149   12.960  .  .    309    254
150   12.980  .  .    283    254
151   13.000  .  .    278    254
152   13.020  .  .    299    253
153   13.040  .  .    234    253
154   13.060  .  .    285    253
155   13.080  .  .    289    252
156   13.100  .  .    290    252
157   13.120  .  .    288    252
158   13.140  .  .    317    251
159   13.160  .  .    277    251
160   13.180  .  .    274    251
161   13.200  .  .    323    250
162   13.220  .  .    288    250
163   13.240  .  .    284    250
164   13.260  .  .    288    249
165   13.280  .  .    275    249
166   13.300  .  .    269    249
167   13.320  .  .    291    248
168   13.340  .  .    300    248
169   13.360  .  .    295    248
170   13.380  .  .    273    247
171   13.400  .  .    264    247
172   13.420  .  .    275    246
173   13.440  .  .    279    246
174   13.460  .  .    283    246
175   13.480  .  .    294    245
176   13.500  .  .    287    245
177   13.520  .  .    295    245
178   13.540  .  .    273    244
179   13.560  .  .    266    244
180   13.580  .  .    260    244
181   13.600  .  .    266    243
182   13.620  .  .    281    243
183   13.640  .  .    269    243
184   13.660  .  .    269    242
185   13.680  .  .    298    242
186   13.700  .  .    272    242
187   13.720  .  .    282    241
188   13.740  .  .    263    241
189   13.760  .  .    276    241
190   13.780  .  .    271    240
191   13.800  .  .    288    240
192   13.820  .  .    261    240
193   13.840  .  .    285    240
194   13.860  .  .    285    239
195   13.880  .  .    264    239
196   13.900  .  .    264    239
197   13.920  .  .    281    238
198   13.940  .  .    275    238
199   13.960  .  .    295    238
200   13.980  .  .    287    237
201   14.000  .  .    283    237
202   14.020  .  .    262    237
203   14.040  .  .    295    236
204   14.060  .  .    246    236
205   14.080  .  .    260    236
206   14.100  .  .    300    235
207   14.120  .  .    272    235
208   14.140  .  .    284    235
209   14.160  .  .    236    234
210   14.180  .  .    239    234
211   14.200  .  .    245    234
212   14.220  .  .    263    233
213   14.240  .  .    276    233
214   14.260  .  .    268    233
215   14.280  .  .    265    232
216   14.300  .  .    249    232
217   14.320  .  .    236    232
218   14.340  .  .    258    231
219   14.360  .  .    246    231
220   14.380  .  .    250    231
221   14.400  .  .    232    231
222   14.420  .  .    244    230
223   14.440  .  .    253    230
224   14.460  .  .    270    230
225   14.480  .  .    273    229
226   14.500  .  .    270    229
227   14.520  .  .    240    229
228   14.540  .  .    277    228
229   14.560  .  .    244    228
230   14.580  .  .    263    228
231   14.600  .  .    261    227
232   14.620  .  .    267    227
233   14.640  .  .    269    227
234   14.660  .  .    253    227
235   14.680  .  .    264    226
236   14.700  .  .    253    226
237   14.720  .  .    257    226
238   14.740  .  .    245    225
239   14.760  .  .    257    225
240   14.780  .  .    230    225
241   14.800  .  .    247    224
242   14.820  .  .    260    224
243   14.840  .  .    226    224
244   14.860  .  .    244    223
245   14.880  .  .    220    223
246   14.900  .  .    249    223
247   14.920  .  .    245    223
248   14.940  .  .    242    222
249   14.960  .  .    258    222
250   14.980  .  .    213    222
251   15.000  .  .    219    221
252   15.020  .  .    231    221
253   15.040  .  .    213    221
254   15.060  .  .    253    220
255   15.080  .  .    214    220
256   15.100  .  .    221    220
257   15.120  .  .    227    220
258   15.140  .  .    243    219
259   15.160  .  .    243    219
260   15.180  .  .    212    219
261   15.200  .  .    237    218
262   15.220  .  .    250    218
263   15.240  .  .    192    218
264   15.260  .  .    248    218
265   15.280  .  .    250    217
266   15.300  .  .    236    217
267   15.320  .  .    213    217
268   15.340  .  .    222    216
269   15.360  .  .    242    216
270   15.380  .  .    199    216
271   15.400  .  .    238    215
272   15.420  .  .    220    215
273   15.440  .  .    237    215
274   15.460  .  .    212    215
275   15.480  .  .    227    214
276   15.500  .  .    231    214
277   15.520  .  .    237    214
278   15.540  .  .    227    213
279   15.560  .  .    237    213
280   15.580  .  .    224    213
281   15.600  .  .    211    213
282   15.620  .  .    226    212
283   15.640  .  .    233    212
284   15.660  .  .    246    212
285   15.680  .  .    218    211
286   15.700  .  .    203    211
287   15.720  .  .    198    211
288   15.740  .  .    197    211
289   15.760  .  .    193    210
290   15.780  .  .    207    210
291   15.800  .  .    203    210
292   15.820  .  .    184    210
293   15.840  .  .    214    209
294   15.860  .  .    194    209
295   15.880  .  .    212    209
296   15.900  .  .    218    208
297   15.920  .  .    221    208
298   15.940  .  .    218    208
299   15.960  .  .    194    208
300   15.980  .  .    204    207
301   16.000  .  .    230    207
302   16.020  .  .    206    207
303   16.040  .  .    233    206
304   16.060  .  .    212    206
305   16.080  .  .    193    206
306   16.100  .  .    203    206
307   16.120  .  .    184    205
308   16.140  .  .    234    205
309   16.160  .  .    218    205
310   16.180  .  .    209    205
311   16.200  .  .    203    204
312   16.220  .  .    235    204
313   16.240  .  .    202    204
314   16.260  .  .    229    203
315   16.280  .  .    198    203
316   16.300  .  .    181    203
317   16.320  .  .    215    203
318   16.340  .  .    187    202
319   16.360  .  .    185    202
320   16.380  .  .    166    202
321   16.400  .  .    197    202
322   16.420  .  .    198    201
323   16.440  .  .    211    201
324   16.460  .  .    188    201
325   16.480  .  .    182    201
326   16.500  .  .    215    200
327   16.520  .  .    199    200
328   16.540  .  .    196    200
329   16.560  .  .    194    199
330   16.580  .  .    186    199
331   16.600  .  .    193    199
332   16.620  .  .    194    199
333   16.640  .  .    187    198
334   16.660  .  .    177    198
335   16.680  .  .    193    198
336   16.700  .  .    180    198
337   16.720  .  .    171    197
338   16.740  .  .    178    197
339   16.760  .  .    183    197
340   16.780  .  .    174    197
341   16.800  .  .    168    196
342   16.820  .  .    208    196
343   16.840  .  .    194    196
344   16.860  .  .    202    196
345   16.880  .  .    153    195
346   16.900  .  .    186    195
347   16.920  .  .    200    195
348   16.940  .  .    174    195
349   16.960  .  .    161    194
350   16.980  .  .    171    194
351   17.000  .  .    195    194
352   17.020  .  .    174    194
353   17.040  .  .    194    193
354   17.060  .  .    177    193
355   17.080  .  .    199    193
356   17.100  .  .    164    193
357   17.120  .  .    178    192
358   17.140  .  .    180    192
359   17.160  .  .    180    192
360   17.180  .  .    177    192
361   17.200  .  .    160    191
362   17.220  .  .    163    191
363   17.240  .  .    149    191
364   17.260  .  .    171    191
365   17.280  .  .    160    190
366   17.300  .  .    168    190
367   17.320  .  .    151    190
368   17.340  .  .    178    190
369   17.360  .  .    156    189
370   17.380  .  .    184    189
371   17.400  .  .    168    189
372   17.420  .  .    153    189
373   17.440  .  .    148    188
374   17.460  .  .    154    188
375   17.480  .  .    163    188
376   17.500  .  .    164    188
377   17.520  .  .    153    187
378   17.540  .  .    175    187
379   17.560  .  .    175    187
380   17.580  .  .    174    187
381   17.600  .  .    151    186
382   17.620  .  .    158    188
383   17.640  .  .    169    187
384   17.660  .  .    155    187
385   17.680  .  .    130    188
386   17.700  .  .    150    188
387   17.720  .  .    146    187
388   17.740  .  .    157    187
389   17.760  .  .    166    187
390   17.780  .  .    153    187
391   17.800  .  .    150    188
392   17.820  .  .    181    188
393   17.840  .  .    182    188
394   17.860  .  .    174    188
395   17.880  .  .    140    188
396   17.900  .  .    140    188
397   17.920  .  .    137    187
398   17.940  .  .    139    187
399   17.960  .  .    180    187
400   17.980  .  .    159    187
401   18.000  .  .    151    187
402   18.020  .  .    144    187
403   18.040  .  .    135    187
404   18.060  .  .    145    187
405   18.080  .  .    147    186
406   18.100  .  .    158    186
407   18.120  .  .    156    186
408   18.140  .  .    164    186
409   18.160  .  .    160    186
410   18.180  .  .    153    186
411   18.200  .  .    144    186
412   18.220  .  .    176    186
413   18.240  .  .    147    186
414   18.260  .  .    156    186
415   18.280  .  .    159    186
416   18.300  .  .    155    186
417   18.320  .  .    167    186
418   18.340  .  .    162    186
419   18.360  .  .    162    185
420   18.380  .  .    121    185
421   18.400  .  .    138    185
422   18.420  .  .    132    185
423   18.440  .  .    150    185
424   18.460  .  .    166    185
425   18.480  .  .    129    185
426   18.500  .  .    146    185
427   18.520  .  .    144    186
428   18.540  .  .    147    186
429   18.560  .  .    134    186
430   18.580  .  .    132    186
431   18.600  .  .    175    186
432   18.620  .  .    152    186
433   18.640  .  .    123    186
434   18.660  .  .    144    186
435   18.680  .  .    125    186
436   18.700  .  .    145    187
437   18.720  .  .    150    187
438   18.740  .  .    126    187
439   18.760  .  .    153    187
440   18.780  .  .    157    187
441   18.800  .  .    140    188
442   18.820  .  .    141    188
443   18.840  .  .    147    188
444   18.860  .  .    146    189
445   18.880  .  .    121    189
446   18.900  .  .    142    190
447   18.920  .  .    137    190
448   18.940  .  .    147    191
449   18.960  .  .    134    191
450   18.980  .  .    152    192
451   19.000  .  .    155    192
452   19.020  .  .    145    193
453   19.040  .  .    140    194
454   19.060  .  .    147    195
455   19.080  .  .    138    196
456   19.100  .  .    134    197
457   19.120  .  .    150    198
458   19.140  .  .    155    199
459   19.160  .  .    131    200
460   19.180  .  .    146    202
461   19.200  .  .    135    203
462   19.220  .  .    142    205
463   19.240  .  .    164    207
464   19.260  .  .    148    209
465   19.280  .  .    144    211
466   19.300  .  .    177    213
467   19.320  .  .    148    216
468   19.340  .  .    187    219
469   19.360  .  .    192    222
470   19.380  .  .    178    226
471   19.400  .  .    190    230
472   19.420  .  .    172    235
473   19.440  .  .    186    240
474   19.460  .  .    253    246
475   19.480  .  .    265    254
476   19.500  .  .    266    263
477   19.520  .  .    324    274
478   19.540  .  .    327    288
479   19.560  .  .    353    307
480   19.580  .  .    456    331
481   19.600  .  .    443    363
482   19.620  .  .    492    406
483   19.640  .  .    579    460
484   19.660  .  .    712    530
485   19.680  .  .    768    621
486   19.700  .  .    923    741
487   19.720  .  .   1094    907
488   19.740  .  .   1207   1137
489   19.760  .  .   1507   1441
490   19.780  .  .   1788   1808
491   19.800  .  .   2171   2213
492   19.820  .  .   2567   2653
493   19.840  .  .   3190   3193
494   19.860  .  .   3809   3952
495   19.880  .  .   4735   4973
496   19.900  .  .   5524   6069
497   19.920  .  .   6050   6871
498   19.940  .  .   6101   7107
499   19.960  .  .   5702   6731
500   19.980  .  .   5159   5904
501   20.000  .  .   4507   4946
502   20.020  .  .   4120   4210
503   20.040  .  .   4107   3925
504   20.060  .  .   4277   4076
505   20.080  .  .   4595   4386
506   20.100  .  .   4624   4512
507   20.120  .  .   4039   4267
508   20.140  .  .   3346   3653
509   20.160  .  .   2549   2818
510   20.180  .  .   1739   1968
511   20.200  .  .   1147   1265
512   20.220  .  .    675    774
513   20.240  .  .    436    481
514   20.260  .  .    305    333
515   20.280  .  .    264    270
516   20.300  .  .    232    249
517   20.320  .  .    204    247
518   20.340  .  .    217    251
519   20.360  .  .    187    256
520   20.380  .  .    195    259
521   20.400  .  .    151    259
522   20.420  .  .    171    258
523   20.440  .  .    168    254
524   20.460  .  .    153    249
525   20.480  .  .    148    244
526   20.500  .  .    149    238
527   20.520  .  .    154    232
528   20.540  .  .    157    227
529   20.560  .  .    162    222
530   20.580  .  .    120    217
531   20.600  .  .    138    213
532   20.620  .  .    135    209
533   20.640  .  .    153    205
534   20.660  .  .    138    202
535   20.680  .  .    138    199
536   20.700  .  .    143    196
537   20.720  .  .    161    194
538   20.740  .  .    143    191
539   20.760  .  .    133    189
540   20.780  .  .    148    187
541   20.800  .  .    139    185
542   20.820  .  .    125    183
543   20.840  .  .    142    182
544   20.860  .  .    142    180
545   20.880  .  .    128    179
546   20.900  .  .    119    177
547   20.920  .  .    120    176
548   20.940  .  .    131    175
549   20.960  .  .    141    174
550   20.980  .  .    150    173
551   21.000  .  .    139    172
552   21.020  .  .    114    171
553   21.040  .  .    133    170
554   21.060  .  .    124    169
555   21.080  .  .    142    168
556   21.100  .  .    144    167
557   21.120  .  .    133    166
558   21.140  .  .     96    166
559   21.160  .  .    130    165
560   21.180  .  .    117    164
561   21.200  .  .    125    164
562   21.220  .  .    130    163
563   21.240  .  .    109    162
564   21.260  .  .    120    162
565   21.280  .  .    126    161
566   21.300  .  .    141    161
567   21.320  .  .    123    160
568   21.340  .  .    120    159
569   21.360  .  .    105    159
570   21.380  .  .    127    158
571   21.400  .  .    134    158
572   21.420  .  .    125    158
573   21.440  .  .    120    157
574   21.460  .  .    137    157
575   21.480  .  .    133    156
576   21.500  .  .    110    156
577   21.520  .  .    121    155
578   21.540  .  .    108    155
579   21.560  .  .    124    155
580   21.580  .  .    124    154
581   21.600  .  .     95    154
582   21.620  .  .    124    153
583   21.640  .  .    113    153
584   21.660  .  .    106    153
585   21.680  .  .    108    152
586   21.700  .  .    103    152
587   21.720  .  .    132    152
588   21.740  .  .    110    151
589   21.760  .  .    111    151
590   21.780  .  .    128    151
591   21.800  .  .    125    150
592   21.820  .  .    108    150
593   21.840  .  .    105    150
594   21.860  .  .    127    150
595   21.880  .  .    114    149
596   21.900  .  .    108    149
597   21.920  .  .    123    149
598   21.940  .  .    126    148
599   21.960  .  .    119    148
600   21.980  .  .    129    148
601   22.000  .  .    130    148
602   22.020  .  .    125    147
603   22.040  .  .    100    147
604   22.060  .  .    116    147
605   22.080  .  .    106    147
606   22.100  .  .    137    146
607   22.120  .  .    135    146
608   22.140  .  .    118    146
609   22.160  .  .    127    146
610   22.180  .  .    122    145
611   22.200  .  .    125    144
612   22.220  .  .    115    143
613   22.240  .  .    133    142
614   22.260  .  .    130    142
615   22.280  .  .    127    142
616   22.300  .  .    108    142
617   22.320  .  .    137    142
618   22.340  .  .    105    141
619   22.360  .  .    120    140
620   22.380  .  .    116    140
621   22.400  .  .    105    140
622   22.420  .  .    106    139
623   22.440  .  .    119    139
624   22.460  .  .    119    139
625   22.480  .  .    128    139
626   22.500  .  .    107    138
627   22.520  .  .    108    138
628   22.540  .  .    111    138
629   22.560  .  .    124    138
630   22.580  .  .    119    138
631   22.600  .  .    128    138
632   22.620  .  .    113    138
633   22.640  .  .    114    137
634   22.660  .  .    107    137
635   22.680  .  .    124    137
636   22.700  .  .    120    137
637   22.720  .  .    143    137
638   22.740  .  .    112    137
639   22.760  .  .    104    137
640   22.780  .  .    135    136
641   22.800  .  .    132    136
642   22.820  .  .    109    136
643   22.840  .  .    131    136
644   22.860  .  .    125    136
645   22.880  .  .    135    136
646   22.900  .  .    124    135
647   22.920  .  .    134    135
648   22.940  .  .    116    135
649   22.960  .  .    155    135
650   22.980  .  .    123    135
651   23.000  .  .    143    135
652   23.020  .  .    135    135
653   23.040  .  .    144    134
654   23.060  .  .    180    134
655   23.080  .  .    162    134
656   23.100  .  .    164    134
657   23.120  .  .    166    134
658   23.140  .  .    150    134
659   23.160  .  .    136    134
660   23.180  .  .    149    133
661   23.200  .  .    129    133
662   23.220  .  .    112    133
663   23.240  .  .    112    133
664   23.260  .  .    146    133
665   23.280  .  .    124    133
666   23.300  .  .    105    133
667   23.320  .  .    141    132
668   23.340  .  .    118    132
669   23.360  .  .    117    132
670   23.380  .  .    128    132
671   23.400  .  .    116    132
672   23.420  .  .    125    132
673   23.440  .  .    111    132
674   23.460  .  .    123    131
675   23.480  .  .    118    131
676   23.500  .  .    106    131
677   23.520  .  .    101    131
678   23.540  .  .    104    131
679   23.560  .  .    123    131
680   23.580  .  .     90    131
681   23.600  .  .    112    130
682   23.620  .  .    108    130
683   23.640  .  .    120    130
684   23.660  .  .    116    130
685   23.680  .  .     97    130
686   23.700  .  .    109    130
687   23.720  .  .    124    130
688   23.740  .  .    128    129
689   23.760  .  .     95    129
690   23.780  .  .     99    129
691   23.800  .  .    116    129
692   23.820  .  .    112    129
693   23.840  .  .    107    129
694   23.860  .  .    104    129
695   23.880  .  .    101    129
696   23.900  .  .    117    128
697   23.920  .  .    117    128
698   23.940  .  .    112    128
699   23.960  .  .    113    128
700   23.980  .  .    114    128
701   24.000  .  .    106    128
702   24.020  .  .    102    128
703   24.040  .  .    127    127
704   24.060  .  .    120    127
705   24.080  .  .    126    127
706   24.100  .  .    124    127
707   24.120  .  .    133    127
708   24.140  .  .    134    127
709   24.160  .  .    140    127
710   24.180  .  .    111    127
711   24.200  .  .    141    126
712   24.220  .  .    168    126
713   24.240  .  .    161    126
714   24.260  .  .    168    126
715   24.280  .  .    152    126
716   24.300  .  .    157    126
717   24.320  .  .    127    126
718   24.340  .  .    117    126
719   24.360  .  .    106    125
720   24.380  .  .    135    125
721   24.400  .  .    101    125
722   24.420  .  .    123    125
723   24.440  .  .    123    125
724   24.460  .  .    107    125
725   24.480  .  .    103    125
726   24.500  .  .    124    125
727   24.520  .  .     99    124
728   24.540  .  .    120    124
729   24.560  .  .     97    124
730   24.580  .  .    117    124
731   24.600  .  .    127    124
732   24.620  .  .    116    124
733   24.640  .  .    118    124
734   24.660  .  .    121    124
735   24.680  .  .    117    123
736   24.700  .  .    111    123
737   24.720  .  .    113    123
738   24.740  .  .    103    123
739   24.760  .  .    114    123
740   24.780  .  .    127    123
741   24.800  .  .    116    123
742   24.820  .  .    109    123
743   24.840  .  .    106    122
744   24.860  .  .    111    122
745   24.880  .  .    128    122
746   24.900  .  .    102    122
747   24.920  .  .    137    122
748   24.940  .  .    116    122
749   24.960  .  .    112    122
750   24.980  .  .    116    122
751   25.000  .  .    105    121
752   25.020  .  .    107    121
753   25.040  .  .    103    121
754   25.060  .  .     95    121
755   25.080  .  .    104    121
756   25.100  .  .    120    121
757   25.120  .  .    116    121
758   25.140  .  .    106    121
759   25.160  .  .    128    121
760   25.180  .  .    116    120
761   25.200  .  .    123    120
762   25.220  .  .    119    120
763   25.240  .  .    101    120
764   25.260  .  .    119    120
765   25.280  .  .    110    120
766   25.300  .  .    106    120
767   25.320  .  .    105    120
768   25.340  .  .    141    119
769   25.360  .  .    118    119
770   25.380  .  .    106    119
771   25.400  .  .    108    119
772   25.420  .  .    110    119
773   25.440  .  .    109    119
774   25.460  .  .    116    119
775   25.480  .  .    114    119
776   25.500  .  .    111    119
777   25.520  .  .    131    118
778   25.540  .  .    114    118
779   25.560  .  .    112    118
780   25.580  .  .    115    118
781   25.600  .  .    115    118
782   25.620  .  .    119    118
783   25.640  .  .    120    118
784   25.660  .  .    126    118
785   25.680  .  .    127    118
786   25.700  .  .    123    117
787   25.720  .  .    118    117
788   25.740  .  .    125    117
789   25.760  .  .    114    117
790   25.780  .  .    119    117
791   25.800  .  .    116    117
792   25.820  .  .    126    117
793   25.840  .  .    110    117
794   25.860  .  .    112    117
795   25.880  .  .    113    116
796   25.900  .  .    116    116
797   25.920  .  .    130    116
798   25.940  .  .    119    116
799   25.960  .  .     97    116
800   25.980  .  .    100    116
801   26.000  .  .    118    116
802   26.020  .  .    101    116
803   26.040  .  .    131    116
804   26.060  .  .    113    115
805   26.080  .  .    104    115
806   26.100  .  .    120    115
807   26.120  .  .    113    115
808   26.140  .  .    123    115
809   26.160  .  .    116    115
810   26.180  .  .    108    115
811   26.200  .  .    109    115
812   26.220  .  .    119    120
813   26.240  .  .     98    120
814   26.260  .  .    111    120
815   26.280  .  .    118    120
816   26.300  .  .    127    123
817   26.320  .  .    129    123
818   26.340  .  .    137    123
819   26.360  .  .    109    123
820   26.380  .  .    119    123
821   26.400  .  .    118    124
822   26.420  .  .     98    124
823   26.440  .  .    123    124
824   26.460  .  .    103    124
825   26.480  .  .    109    124
826   26.500  .  .    101    124
827   26.520  .  .    102    124
828   26.540  .  .    111    124
829   26.560  .  .    104    125
830   26.580  .  .     97    125
831   26.600  .  .     91    125
832   26.620  .  .    112    125
833   26.640  .  .    119    125
834   26.660  .  .    116    125
835   26.680  .  .     99    126
836   26.700  .  .    121    126
837   26.720  .  .    124    126
838   26.740  .  .    122    126
839   26.760  .  .    114    126
840   26.780  .  .    105    127
841   26.800  .  .    116    127
842   26.820  .  .    107    127
843   26.840  .  .    103    128
844   26.860  .  .    117    128
845   26.880  .  .    113    128
846   26.900  .  .    111    129
847   26.920  .  .    120    129
848   26.940  .  .    126    129
849   26.960  .  .    113    130
850   26.980  .  .     93    130
851   27.000  .  .    109    131
852   27.020  .  .    113    131
853   27.040  .  .    105    131
854   27.060  .  .    116    132
855   27.080  .  .    106    133
856   27.100  .  .    126    133
857   27.120  .  .    114    134
858   27.140  .  .    103    134
859   27.160  .  .    112    135
860   27.180  .  .    116    136
861   27.200  .  .    125    136
862   27.220  .  .     97    137
863   27.240  .  .    122    138
864   27.260  .  .    131    139
865   27.280  .  .    113    140
866   27.300  .  .    122    141
867   27.320  .  .    101    142
868   27.340  .  .    112    143
869   27.360  .  .    122    144
870   27.380  .  .    119    145
871   27.400  .  .    105    147
872   27.420  .  .    117    148
873   27.440  .  .    143    150
874   27.460  .  .    120    151
875   27.480  .  .    129    153
876   27.500  .  .    118    155
877   27.520  .  .    117    157
878   27.540  .  .    138    159
879   27.560  .  .    120    161
880   27.580  .  .    126    163
881   27.600  .  .     96    166
882   27.620  .  .    109    169
883   27.640  .  .    131    172
884   27.660  .  .    133    175
885   27.680  .  .    135    178
886   27.700  .  .    137    182
887   27.720  .  .    140    186
888   27.740  .  .    147    191
889   27.760  .  .    173    196
890   27.780  .  .    144    201
891   27.800  .  .    157    207
892   27.820  .  .    155    213
893   27.840  .  .    159    220
894   27.860  .  .    172    228
895   27.880  .  .    198    237
896   27.900  .  .    190    247
897   27.920  .  .    209    257
898   27.940  .  .    213    270
899   27.960  .  .    274    284
900   27.980  .  .    267    300
901   28.000  .  .    248    318
902   28.020  .  .    323    341
903   28.040  .  .    380    368
904   28.060  .  .    436    402
905   28.080  .  .    507    446
906   28.100  .  .    587    504
907   28.120  .  .    680    579
908   28.140  .  .    865    677
909   28.160  .  .   1002    805
910   28.180  .  .   1269    970
911   28.200  .  .   1505   1187
912   28.220  .  .   1977   1483
913   28.240  .  .   2468   1907
914   28.260  .  .   2979   2529
915   28.280  .  .   3823   3409
916   28.300  .  .   4935   4565
917   28.320  .  .   6072   5982
918   28.340  .  .   7884   7701
919   28.360  .  .   9994   9910
920   28.380  .  .  12823  12804
921   28.400  .  .  16428  16132
922   28.420  .  .  19015  18899
923   28.440  .  .  20247  19993
924   28.460  .  .  19118  19221
925   28.480  .  .  17042  17160
926   28.500  .  .  14302  14373
927   28.520  .  .  11304  11230
928   28.540  .  .   8444   8107
929   28.560  .  .   5749   5375
930   28.580  .  .   3636   3283
931   28.600  .  .   2253   1896
932   28.620  .  .   1432   1102
933   28.640  .  .    962    707
934   28.660  .  .    706    533
935   28.680  .  .    566    464
936   28.700  .  .    486    439
937   28.720  .  .    415    429
938   28.740  .  .    376    422
939   28.760  .  .    306    412
940   28.780  .  .    312    399
941   28.800  .  .    262    383
942   28.820  .  .    273    365
943   28.840  .  .    229    346
944   28.860  .  .    228    327
945   28.880  .  .    243    309
946   28.900  .  .    216    293
947   28.920  .  .    193    278
948   28.940  .  .    241    265
949   28.960  .  .    218    253
950   28.980  .  .    212    242
951   29.000  .  .    180    232
952   29.020  .  .    184    223
953   29.040  .  .    180    215
954   29.060  .  .    172    208
955   29.080  .  .    178    202
956   29.100  .  .    180    196
957   29.120  .  .    170    190
958   29.140  .  .    171    185
959   29.160  .  .    176    180
960   29.180  .  .    158    176
961   29.200  .  .    229    172
962   29.220  .  .    256    169
963   29.240  .  .    350    165
964   29.260  .  .    399    162
965   29.280  .  .    454    159
966   29.300  .  .    510    156
967   29.320  .  .    497    154
968   29.340  .  .    484    151
969   29.360  .  .    606    149
970   29.380  .  .    701    147
971   29.400  .  .    764    145
972   29.420  .  .    814    143
973   29.440  .  .    789    142
974   29.460  .  .    709    140
975   29.480  .  .    615    138
976   29.500  .  .    480    137
977   29.520  .  .    387    135
978   29.540  .  .    311    134
979   29.560  .  .    213    133
980   29.580  .  .    162    132
981   29.600  .  .    153    131
982   29.620  .  .    110    129
983   29.640  .  .    164    128
984   29.660  .  .    150    127
985   29.680  .  .    162    126
986   29.700  .  .    134    126
987   29.720  .  .    118    125
988   29.740  .  .    161    124
989   29.760  .  .    161    123
990   29.780  .  .    137    122
991   29.800  .  .    153    122
992   29.820  .  .    146    121
993   29.840  .  .    168    120
994   29.860  .  .    153    120
995   29.880  .  .    171    119
996   29.900  .  .    175    118
997   29.920  .  .    171    118
998   29.940  .  .    155    117
999   29.960  .  .    189    117
1000  29.980  .  .    149    116
1001  30.000  .  .    171    116
1002  30.020  .  .    187    115
1003  30.040  .  .    190    115
1004  30.060  .  .    195    114
1005  30.080  .  .    176    114
1006  30.100  .  .    174    113
1007  30.120  .  .    212    113
1008  30.140  .  .    169    112
1009  30.160  .  .    160    112
1010  30.180  .  .    161    112
1011  30.200  .  .    148    111
1012  30.220  .  .    146    111
1013  30.240  .  .    148    111
1014  30.260  .  .    135    110
1015  30.280  .  .    115    110
1016  30.300  .  .    145    110
1017  30.320  .  .    135    109
1018  30.340  .  .    129    109
1019  30.360  .  .    124    109
1020  30.380  .  .    125    108
1021  30.400  .  .    122    108
1022  30.420  .  .    112    108
1023  30.440  .  .    127    108
1024  30.460  .  .    107    107
1025  30.480  .  .    101    107
1026  30.500  .  .    125    107
1027  30.520  .  .    116    107
1028  30.540  .  .    127    106
1029  30.560  .  .    116    106
1030  30.580  .  .    113    106
1031  30.600  .  .    110    106
1032  30.620  .  .    124    105
1033  30.640  .  .    108    100
1034  30.660  .  .    119    100
1035  30.680  .  .    123     99
1036  30.700  .  .    138     97
1037  30.720  .  .    133     96
1038  30.740  .  .    117     96
1039  30.760  .  .    114     96
1040  30.780  .  .    110     96
1041  30.800  .  .    113     96
1042  30.820  .  .    115     96
1043  30.840  .  .    116     96
1044  30.860  .  .    113     96
1045  30.880  .  .    106     96
1046  30.900  .  .    121     96
1047  30.920  .  .    139     96
1048  30.940  .  .    102     96
1049  30.960  .  .    118     96
1050  30.980  .  .    121     96
1051  31.000  .  .    129     96
1052  31.020  .  .     99     96
1053  31.040  .  .    103     96
1054  31.060  .  .    109     95
1055  31.080  .  .    127     95
1056  31.100  .  .    125     95
1057  31.120  .  .    131     95
1058  31.140  .  .    141     95
1059  31.160  .  .    121     95
1060  31.180  .  .    127     95
1061  31.200  .  .    126     95
1062  31.220  .  .    136     95
1063  31.240  .  .    163     95
1064  31.260  .  .    133     95
1065  31.280  .  .    152     95
1066  31.300  .  .    136     95
1067  31.320  .  .    125     95
1068  31.340  .  .    160     95
1069  31.360  .  .    139     95
1070  31.380  .  .    136     95
1071  31.400  .  .    140     95
1072  31.420  .  .    159     94
1073  31.440  .  .    162     94
1074  31.460  .  .    157     94
1075  31.480  .  .    113     94
1076  31.500  .  .    127     94
1077  31.520  .  .    126     94
1078  31.540  .  .    147     94
1079  31.560  .  .    124     94
1080  31.580  .  .    104     94
1081  31.600  .  .    130     94
1082  31.620  .  .    137     94
1083  31.640  .  .    112     94
1084  31.660  .  .    138     94
1085  31.680  .  .    115     94
1086  31.700  .  .    132     94
1087  31.720  .  .    141     94
1088  31.740  .  .     86     94
1089  31.760  .  .    117     94
1090  31.780  .  .    142     93
1091  31.800  .  .    110     93
1092  31.820  .  .    118     93
1093  31.840  .  .    106     93
1094  31.860  .  .    112     93
1095  31.880  .  .    100     93
1096  31.900  .  .    119     93
1097  31.920  .  .    115     93
1098  31.940  .  .     98     93
1099  31.960  .  .    102     93
1100  31.980  .  .    121     93
1101  32.000  .  .     88     93
1102  32.020  .  .    110     93
1103  32.040  .  .    109     93
1104  32.060  .  .    121     93
1105  32.080  .  .    106     93
1106  32.100  .  .    114     93
1107  32.120  .  .    100     93
1108  32.140  .  .    119     93
1109  32.160  .  .    103     93
1110  32.180  .  .    105     92
1111  32.200  .  .    117     92
1112  32.220  .  .     97     92
1113  32.240  .  .     86     92
1114  32.260  .  .     96     92
1115  32.280  .  .    102     92
1116  32.300  .  .    117     92
1117  32.320  .  .    105     92
1118  32.340  .  .     94     92
1119  32.360  .  .    101     92
1120  32.380  .  .    107     92
1121  32.400  .  .    118     92
1122  32.420  .  .    102     92
1123  32.440  .  .    104     92
1124  32.460  .  .    108     92
1125  32.480  .  .    101     92
1126  32.500  .  .     86     92
1127  32.520  .  .     97     92
1128  32.540  .  .    108     92
1129  32.560  .  .    115     92
1130  32.580  .  .    100     92
1131  32.600  .  .    107     92
1132  32.620  .  .     94     91
1133  32.640  .  .    101     91
1134  32.660  .  .    102     91
1135  32.680  .  .    106     91
1136  32.700  .  .     92     91
1137  32.720  .  .     99     91
1138  32.740  .  .     95     91
1139  32.760  .  .    101     91
1140  32.780  .  .    101     91
1141  32.800  .  .     95     91
1142  32.820  .  .     90     91
1143  32.840  .  .     91     91
1144  32.860  .  .     98     91
1145  32.880  .  .    101     91
1146  32.900  .  .     98     91
1147  32.920  .  .    115     91
1148  32.940  .  .    112     91
1149  32.960  .  .    111     91
1150  32.980  .  .    103     91
1151  33.000  .  .     93     95
1152  33.020  .  .    108     95
1153  33.040  .  .    104     95
1154  33.060  .  .    103     95
1155  33.080  .  .    116     95
1156  33.100  .  .    106     98
1157  33.120  .  .    125     98
1158  33.140  .  .    108     98
1159  33.160  .  .    104     98
1160  33.180  .  .     96     98
1161  33.200  .  .    102     98
1162  33.220  .  .     89     98
1163  33.240  .  .    122     99
1164  33.260  .  .    117     99
1165  33.280  .  .     91     99
1166  33.300  .  .     92     99
1167  33.320  .  .    106     99
1168  33.340  .  .     90     99
1169  33.360  .  .    102    100
1170  33.380  .  .    112    100
1171  33.400  .  .    109    100
1172  33.420  .  .    113    100
1173  33.440  .  .    125    100
1174  33.460  .  .    111    100
1175  33.480  .  .    126    101
1176  33.500  .  .     90    101
1177  33.520  .  .    140    101
1178  33.540  .  .    120    101
1179  33.560  .  .    103    102
1180  33.580  .  .    120    102
1181  33.600  .  .    136    102
1182  33.620  .  .    147    103
1183  33.640  .  .    121    103
1184  33.660  .  .     99    103
1185  33.680  .  .    147    103
1186  33.700  .  .    144    104
1187  33.720  .  .    125    104
1188  33.740  .  .    127    105
1189  33.760  .  .    126    105
1190  33.780  .  .    135    105
1191  33.800  .  .    128    106
1192  33.820  .  .    120    106
1193  33.840  .  .    106    107
1194  33.860  .  .    123    107
1195  33.880  .  .    122    108
1196  33.900  .  .    118    108
1197  33.920  .  .    104    109
1198  33.940  .  .    122    110
1199  33.960  .  .    131    110
1200  33.980  .  .    116    111
1201  34.000  .  .    104    112
1202  34.020  .  .    142    112
1203  34.040  .  .    129    113
1204  34.060  .  .    132    114
1205  34.080  .  .    120    115
1206  34.100  .  .    138    116
1207  34.120  .  .    139    117
1208  34.140  .  .    140    118
1209  34.160  .  .    130    119
1210  34.180  .  .    138    121
1211  34.200  .  .    139    122
1212  34.220  .  .    140    123
1213  34.240  .  .    109    125
1214  34.260  .  .    112    126
1215  34.280  .  .    153    128
1216  34.300  .  .    133    130
1217  34.320  .  .    132    132
1218  34.340  .  .    161    134
1219  34.360  .  .    144    136
1220  34.380  .  .    145    138
1221  34.400  .  .    142    141
1222  34.420  .  .    137    144
1223  34.440  .  .    181    147
1224  34.460  .  .    151    150
1225  34.480  .  .    147    154
1226  34.500  .  .    165    158
1227  34.520  .  .    144    162
1228  34.540  .  .    172    167
1229  34.560  .  .    158    172
1230  34.580  .  .    176    178
1231  34.600  .  .    163    184
1232  34.620  .  .    167    191
1233  34.640  .  .    175    199
1234  34.660  .  .    182    208
1235  34.680  .  .    169    218
1236  34.700  .  .    201    229
1237  34.720  .  .    169    242
1238  34.740  .  .    205    258
1239  34.760  .  .    238    276
1240  34.780  .  .    232    298
1241  34.800  .  .    311    325
1242  34.820  .  .    278    359
1243  34.840  .  .    383    404
1244  34.860  .  .    404    461
1245  34.880  .  .    456    535
1246  34.900  .  .    585    630
1247  34.920  .  .    720    755
1248  34.940  .  .    908    922
1249  34.960  .  .   1159   1160
1250  34.980  .  .   1544   1519
1251  35.000  .  .   1999   2060
1252  35.020  .  .   2644   2839
1253  35.040  .  .   3522   3877
1254  35.060  .  .   4721   5191
1255  35.080  .  .   6334   6865
1256  35.100  .  .   8819   9029
1257  35.120  .  .  11731  11614
1258  35.140  .  .  14518  13999
1259  35.160  .  .  15154  15213
1260  35.180  .  .  14964  14857
1261  35.200  .  .  13132  13444
1262  35.220  .  .  11412  11725
1263  35.240  .  .   9647  10018
1264  35.260  .  .   8046   8231
1265  35.280  .  .   6581   6326
1266  35.300  .  .   4796   4476
1267  35.320  .  .   3009   2919
1268  35.340  .  .   1734   1801
1269  35.360  .  .   1041   1111
1270  35.380  .  .    712    737
1271  35.400  .  .    564    550
1272  35.420  .  .    431    458
1273  35.440  .  .    339    410
1274  35.460  .  .    312    382
1275  35.480  .  .    287    361
1276  35.500  .  .    246    343
1277  35.520  .  .    269    325
1278  35.540  .  .    216    307
1279  35.560  .  .    189    290
1280  35.580  .  .    179    274
1281  35.600  .  .    167    259
1282  35.620  .  .    186    244
1283  35.640  .  .    167    232
1284  35.660  .  .    161    220
1285  35.680  .  .    133    210
1286  35.700  .  .    176    201
1287  35.720  .  .    154    192
1288  35.740  .  .    137    185
1289  35.760  .  .    131    178
1290  35.780  .  .    143    172
1291  35.800  .  .    145    167
1292  35.820  .  .    133    162
1293  35.840  .  .    131    157
1294  35.860  .  .    119    153
1295  35.880  .  .    129    149
1296  35.900  .  .    132    146
1297  35.920  .  .    158    143
1298  35.940  .  .    185    140
1299  35.960  .  .    211    137
1300  35.980  .  .    237    134
1301  36.000  .  .    201    132
1302  36.020  .  .    193    130
1303  36.040  .  .    191    128
1304  36.060  .  .    190    126
1305  36.080  .  .    179    124
1306  36.100  .  .    146    122
1307  36.120  .  .    136    121
1308  36.140  .  .    135    119
1309  36.160  .  .    124    118
1310  36.180  .  .    134    117
1311  36.200  .  .    117    115
1312  36.220  .  .    110    114
1313  36.240  .  .    106    113
1314  36.260  .  .    107    112
1315  36.280  .  .    110    111
1316  36.300  .  .    107    110
1317  36.320  .  .     90    109
1318  36.340  .  .     95    108
1319  36.360  .  .     85    108
1320  36.380  .  .    105    107
1321  36.400  .  .    109    106
1322  36.420  .  .     94    105
1323  36.440  .  .     94    105
1324  36.460  .  .     99    104
1325  36.480  .  .    103    104
1326  36.500  .  .     89    103
1327  36.520  .  .     96    102
1328  36.540  .  .    102    102
1329  36.560  .  .    116    101
1330  36.580  .  .     90    101
1331  36.600  .  .    111    100
1332  36.620  .  .     79    100
1333  36.640  .  .    102    100
1334  36.660  .  .    110     99
1335  36.680  .  .     86     99
1336  36.700  .  .    113     98
1337  36.720  .  .    110     98
1338  36.740  .  .     99     98
1339  36.760  .  .     99     97
1340  36.780  .  .     98     97
1341  36.800  .  .    111     97
1342  36.820  .  .    105     96
1343  36.840  .  .     87     96
1344  36.860  .  .    100     96
1345  36.880  .  .    107     95
1346  36.900  .  .    105     95
1347  36.920  .  .     87     95
1348  36.940  .  .    107     95
1349  36.960  .  .     88     94
1350  36.980  .  .     72     94
1351  37.000  .  .     83     94
1352  37.020  .  .     94     94
1353  37.040  .  .     92     93
1354  37.060  .  .     88     93
1355  37.080  .  .     88     93
1356  37.100  .  .     94     93
1357  37.120  .  .    124     93
1358  37.140  .  .     95     92
1359  37.160  .  .     83     92
1360  37.180  .  .    103     92
1361  37.200  .  .    110     92
1362  37.220  .  .    111     92
1363  37.240  .  .     85     92
1364  37.260  .  .     92     91
1365  37.280  .  .    105     91
1366  37.300  .  .     98     86
1367  37.320  .  .     88     86
1368  37.340  .  .     84     86
1369  37.360  .  .    100     86
1370  37.380  .  .    106     86
1371  37.400  .  .     90     84
1372  37.420  .  .    110     84
1373  37.440  .  .    105     84
1374  37.460  .  .     88     84
1375  37.480  .  .     88     84
1376  37.500  .  .    101     84
1377  37.520  .  .     93     84
1378  37.540  .  .    102     84
1379  37.560  .  .    101     84
1380  37.580  .  .    102     84
1381  37.600  .  .    105     84
1382  37.620  .  .     97     84
1383  37.640  .  .     96     84
1384  37.660  .  .    100     84
1385  37.680  .  .     95     84
1386  37.700  .  .     98     84
1387  37.720  .  .    103     84
1388  37.740  .  .    101     84
1389  37.760  .  .    113     84
1390  37.780  .  .    104     84
1391  37.800  .  .    100     84
1392  37.820  .  .    107     84
1393  37.840  .  .    127     83
1394  37.860  .  .    112     83
1395  37.880  .  .    104     83
1396  37.900  .  .    105     83
1397  37.920  .  .    103     83
1398  37.940  .  .    100     83
1399  37.960  .  .     91     83
1400  37.980  .  .    113     83
1401  38.000  .  .     93     83
1402  38.020  .  .    101     83
1403  38.040  .  .     98     83
1404  38.060  .  .    105     83
1405  38.080  .  .     87     83
1406  38.100  .  .     99     83
1407  38.120  .  .    115     83
1408  38.140  .  .    102     83
1409  38.160  .  .    104     83
1410  38.180  .  .     87     83
1411  38.200  .  .     84     83
1412  38.220  .  .     88     83
1413  38.240  .  .     97     83
1414  38.260  .  .    103     83
1415  38.280  .  .    110     83
1416  38.300  .  .     96     83
1417  38.320  .  .    100     83
1418  38.340  .  .     93     86
1419  38.360  .  .    100     86
1420  38.380  .  .     91     86
1421  38.400  .  .     88     86
1422  38.420  .  .    105     86
1423  38.440  .  .     74     87
1424  38.460  .  .     96     87
1425  38.480  .  .     97     87
1426  38.500  .  .     93     87
1427  38.520  .  .     99     88
1428  38.540  .  .    105     88
1429  38.560  .  .     87     88
1430  38.580  .  .     94     88
1431  38.600  .  .    102     88
1432  38.620  .  .     93     88
1433  38.640  .  .    108     88
1434  38.660  .  .    112     88
1435  38.680  .  .    115     89
1436  38.700  .  .     87     91
1437  38.720  .  .     99     91
1438  38.740  .  .    101     91
1439  38.760  .  .    109     92
1440  38.780  .  .    104     92
1441  38.800  .  .     99     93
1442  38.820  .  .     87     93
1443  38.840  .  .    123     93
1444  38.860  .  .     96     94
1445  38.880  .  .    106     94
1446  38.900  .  .     94     94
1447  38.920  .  .    101     94
1448  38.940  .  .    118     95
1449  38.960  .  .    113     95
1450  38.980  .  .    104     95
1451  39.000  .  .     93     96
1452  39.020  .  .     97     96
1453  39.040  .  .    104     96
1454  39.060  .  .     93     97
1455  39.080  .  .    101     97
1456  39.100  .  .    104     97
1457  39.120  .  .    109     98
1458  39.140  .  .    123     98
1459  39.160  .  .    125     99
1460  39.180  .  .    120     99
1461  39.200  .  .    123     99
1462  39.220  .  .    141    100
1463  39.240  .  .    130    100
1464  39.260  .  .    161    101
1465  39.280  .  .    128    102
1466  39.300  .  .    136    102
1467  39.320  .  .    136    103
1468  39.340  .  .    144    103
1469  39.360  .  .    147    104
1470  39.380  .  .    163    105
1471  39.400  .  .    213    106
1472  39.420  .  .    177    106
1473  39.440  .  .    198    107
1474  39.460  .  .    171    108
1475  39.480  .  .    182    109
1476  39.500  .  .    149    110
1477  39.520  .  .    174    111
1478  39.540  .  .    135    112
1479  39.560  .  .    146    113
1480  39.580  .  .    116    115
1481  39.600  .  .    134    116
1482  39.620  .  .    115    117
1483  39.640  .  .    123    119
1484  39.660  .  .    139    121
1485  39.680  .  .    126    122
1486  39.700  .  .    122    124
1487  39.720  .  .    120    126
1488  39.740  .  .    146    128
1489  39.760  .  .    119    131
1490  39.780  .  .    140    133
1491  39.800  .  .    132    136
1492  39.820  .  .    120    139
1493  39.840  .  .    123    142
1494  39.860  .  .    144    146
1495  39.880  .  .    156    149
1496  39.900  .  .    140    154
1497  39.920  .  .    138    158
1498  39.940  .  .    142    164
1499  39.960  .  .    136    169
1500  39.980  .  .    140    176
1501  40.000  .  .    158    183
1502  40.020  .  .    179    191
1503  40.040  .  .    160    200
1504  40.060  .  .    174    211
1505  40.080  .  .    173    224
1506  40.100  .  .    213    239
1507  40.120  .  .    226    258
1508  40.140  .  .    252    282
1509  40.160  .  .    269    311
1510  40.180  .  .    299    349
1511  40.200  .  .    326    396
1512  40.220  .  .    408    457
1513  40.240  .  .    489    538
1514  40.260  .  .    588    652
1515  40.280  .  .    775    824
1516  40.300  .  .   1018   1089
1517  40.320  .  .   1302   1488
1518  40.340  .  .   1876   2049
1519  40.360  .  .   2450   2789
1520  40.380  .  .   3574   3737
1521  40.400  .  .   4871   4948
1522  40.420  .  .   6628   6389
1523  40.440  .  .   8023   7758
1524  40.460  .  .   8706   8517
1525  40.480  .  .   8488   8377
1526  40.500  .  .   7843   7593
1527  40.520  .  .   6611   6667
1528  40.540  .  .   5944   5921
1529  40.560  .  .   5348   5311
1530  40.580  .  .   4851   4632
1531  40.600  .  .   4297   3833
1532  40.620  .  .   3448   3050
1533  40.640  .  .   2827   2463
1534  40.660  .  .   2477   2199
1535  40.680  .  .   2377   2290
1536  40.700  .  .   2745   2686
1537  40.720  .  .   3340   3293
1538  40.740  .  .   4076   4044
1539  40.760  .  .   5238   4957
1540  40.780  .  .   6571   6025
1541  40.800  .  .   7610   7026
1542  40.820  .  .   8150   7528
1543  40.840  .  .   7709   7292
1544  40.860  .  .   6760   6525
1545  40.880  .  .   5690   5643
1546  40.900  .  .   4954   4918
1547  40.920  .  .   4420   4314
1548  40.940  .  .   3999   3655
1549  40.960  .  .   3323   2887
1550  40.980  .  .   2300   2104
1551  41.000  .  .   1575   1431
1552  41.020  .  .    988    945
1553  41.040  .  .    633    640
1554  41.060  .  .    500    468
1555  41.080  .  .    371    376
1556  41.100  .  .    321    326
1557  41.120  .  .    296    296
1558  41.140  .  .    255    275
1559  41.160  .  .    274    259
1560  41.180  .  .    250    245
1561  41.200  .  .    237    233
1562  41.220  .  .    177    221
1563  41.240  .  .    183    211
1564  41.260  .  .    176    201
1565  41.280  .  .    173    192
1566  41.300  .  .    161    184
1567  41.320  .  .    178    177
1568  41.340  .  .    154    170
1569  41.360  .  .    147    164
1570  41.380  .  .    142    159
1571  41.400  .  .    128    154
1572  41.420  .  .    140    149
1573  41.440  .  .    128    146
1574  41.460  .  .    116    142
1575  41.480  .  .    140    139
1576  41.500  .  .    115    136
1577  41.520  .  .    128    133
1578  41.540  .  .    130    130
1579  41.560  .  .    112    128
1580  41.580  .  .    131    126
1581  41.600  .  .    132    123
1582  41.620  .  .    115    122
1583  41.640  .  .    140    120
1584  41.660  .  .    103    118
1585  41.680  .  .    109    117
1586  41.700  .  .    121    115
1587  41.720  .  .    111    114
1588  41.740  .  .    120    112
1589  41.760  .  .    118    111
1590  41.780  .  .    122    110
1591  41.800  .  .    106    109
1592  41.820  .  .    111    108
1593  41.840  .  .    103    107
1594  41.860  .  .    118    106
1595  41.880  .  .    109    105
1596  41.900  .  .    126    104
1597  41.920  .  .    129    104
1598  41.940  .  .    118    103
1599  41.960  .  .    107    102
1600  41.980  .  .    105    102
1601  42.000  .  .    114    101
1602  42.020  .  .     89    100
1603  42.040  .  .     94    100
1604  42.060  .  .    120     99
1605  42.080  .  .     87     99
1606  42.100  .  .     81     98
1607  42.120  .  .     98     98
1608  42.140  .  .     95     97
1609  42.160  .  .     95     97
1610  42.180  .  .     98     96
1611  42.200  .  .    111     96
1612  42.220  .  .     91     96
1613  42.240  .  .     77     95
1614  42.260  .  .     97     95
1615  42.280  .  .    104     94
1616  42.300  .  .    109     94
1617  42.320  .  .    117     94
1618  42.340  .  .     86     93
1619  42.360  .  .     91     93
1620  42.380  .  .    105     93
1621  42.400  .  .     98     93
1622  42.420  .  .     98     92
1623  42.440  .  .    121     92
1624  42.460  .  .    102     92
1625  42.480  .  .    117     92
1626  42.500  .  .     84     91
1627  42.520  .  .     85     91
1628  42.540  .  .     86     91
1629  42.560  .  .    102     91
1630  42.580  .  .    103     88
1631  42.600  .  .    122     88
1632  42.620  .  .     97     88
1633  42.640  .  .    105     87
1634  42.660  .  .     85     87
1635  42.680  .  .     95     86
1636  42.700  .  .    106     86
1637  42.720  .  .    108     86
1638  42.740  .  .    110     86
1639  42.760  .  .     90     85
1640  42.780  .  .     93     85
1641  42.800  .  .     87     85
1642  42.820  .  .     97     85
1643  42.840  .  .    103     85
1644  42.860  .  .    105     85
1645  42.880  .  .     91     85
1646  42.900  .  .    107     85
1647  42.920  .  .    102     85
1648  42.940  .  .     94     82
1649  42.960  .  .     83     82
1650  42.980  .  .    103     82
1651  43.000  .  .    111     82
1652  43.020  .  .    101     82
1653  43.040  .  .    111     81
1654  43.060  .  .    106     81
1655  43.080  .  .    121     81
1656  43.100  .  .    138     81
1657  43.120  .  .    138     81
1658  43.140  .  .    171     81
1659  43.160  .  .    173     81
1660  43.180  .  .    176     81
1661  43.200  .  .    160     81
1662  43.220  .  .    150     81
1663  43.240  .  .    144     81
1664  43.260  .  .    147     81
1665  43.280  .  .    120     81
1666  43.300  .  .    130     81
1667  43.320  .  .    126     81
1668  43.340  .  .    100     81
1669  43.360  .  .    100     81
1670  43.380  .  .     88     81
1671  43.400  .  .    106     81
1672  43.420  .  .    110     81
1673  43.440  .  .    107     81
1674  43.460  .  .     94     81
1675  43.480  .  .    105     81
1676  43.500  .  .     91     81
1677  43.520  .  .    111     81
1678  43.540  .  .    104     81
1679  43.560  .  .    103     81
1680  43.580  .  .     92     81
1681  43.600  .  .     93     81
1682  43.620  .  .     84     81
1683  43.640  .  .     90     81
1684  43.660  .  .     94     81
1685  43.680  .  .     82     81
1686  43.700  .  .     89     82
1687  43.720  .  .     85     85
1688  43.740  .  .    102     85
1689  43.760  .  .     70     85
1690  43.780  .  .     87     85
1691  43.800  .  .     92     86
1692  43.820  .  .    104     86
1693  43.840  .  .    104     88
1694  43.860  .  .     87     88
1695  43.880  .  .     89     88
1696  43.900  .  .    104     88
1697  43.920  .  .    116     88
1698  43.940  .  .    105     88
1699  43.960  .  .    102     88
1700  43.980  .  .    101     89
1701  44.000  .  .     89     89
1702  44.020  .  .     78     89
1703  44.040  .  .     90     89
1704  44.060  .  .     92     89
1705  44.080  .  .    101     89
1706  44.100  .  .    101     90
1707  44.120  .  .     93     90
1708  44.140  .  .    113     90
1709  44.160  .  .     83     90
1710  44.180  .  .     97     91
1711  44.200  .  .     95     91
1712  44.220  .  .    101     91
1713  44.240  .  .    103     91
1714  44.260  .  .     98     92
1715  44.280  .  .    109     92
1716  44.300  .  .     95     92
1717  44.320  .  .     95     92
1718  44.340  .  .    103     93
1719  44.360  .  .    105     93
1720  44.380  .  .    107     93
1721  44.400  .  .    104     94
1722  44.420  .  .    108     94
1723  44.440  .  .     95     95
1724  44.460  .  .    110     95
1725  44.480  .  .     95     95
1726  44.500  .  .     90     96
1727  44.520  .  .    112     96
1728  44.540  .  .     88     97
1729  44.560  .  .     96     97
1730  44.580  .  .     99     98
1731  44.600  .  .    103     98
1732  44.620  .  .    106     99
1733  44.640  .  .    114    100
1734  44.660  .  .    109    100
1735  44.680  .  .    111    101
1736  44.700  .  .    115    102
1737  44.720  .  .    100    103
1738  44.740  .  .    118    103
1739  44.760  .  .    106    104
1740  44.780  .  .     94    105
1741  44.800  .  .    110    106
1742  44.820  .  .    111    107
1743  44.840  .  .    115    108
1744  44.860  .  .    111    110
1745  44.880  .  .    104    111
1746  44.900  .  .    129    112
1747  44.920  .  .    133    114
1748  44.940  .  .    117    115
1749  44.960  .  .    134    117
1750  44.980  .  .    134    119
1751  45.000  .  .    135    121
1752  45.020  .  .    130    123
1753  45.040  .  .    121    125
1754  45.060  .  .    132    128
1755  45.080  .  .    145    130
1756  45.100  .  .    159    133
1757  45.120  .  .    136    137
1758  45.140  .  .    162    140
1759  45.160  .  .    172    144
1760  45.180  .  .    143    149
1761  45.200  .  .    139    154
1762  45.220  .  .    171    159
1763  45.240  .  .    162    166
1764  45.260  .  .    167    173
1765  45.280  .  .    179    182
1766  45.300  .  .    190    192
1767  45.320  .  .    222    205
1768  45.340  .  .    222    220
1769  45.360  .  .    240    238
1770  45.380  .  .    277    263
1771  45.400  .  .    304    299
1772  45.420  .  .    336    351
1773  45.440  .  .    462    425
1774  45.460  .  .    481    526
1775  45.480  .  .    658    657
1776  45.500  .  .    830    826
1777  45.520  .  .   1127   1032
1778  45.540  .  .   1331   1254
1779  45.560  .  .   1598   1436
1780  45.580  .  .   1698   1528
1781  45.600  .  .   1724   1546
1782  45.620  .  .   1645   1568
1783  45.640  .  .   1810   1691
1784  45.660  .  .   2128   1993
1785  45.680  .  .   2603   2512
1786  45.700  .  .   3312   3255
1787  45.720  .  .   4458   4243
1788  45.740  .  .   5994   5536
1789  45.760  .  .   7738   7175
1790  45.780  .  .   9854   9010
1791  45.800  .  .  11382  10498
1792  45.820  .  .  11277  10966
1793  45.840  .  .  10397  10290
1794  45.860  .  .   8877   8986
1795  45.880  .  .   7555   7730
1796  45.900  .  .   6611   6907
1797  45.920  .  .   6449   6401
1798  45.940  .  .   6052   5797
1799  45.960  .  .   5067   4865
1800  45.980  .  .   4036   3714
1801  46.000  .  .   2866   2594
1802  46.020  .  .   1790   1701
1803  46.040  .  .   1190   1097
1804  46.060  .  .    777    737
1805  46.080  .  .    608    540
1806  46.100  .  .    497    433
1807  46.120  .  .    429    372
1808  46.140  .  .    352    334
1809  46.160  .  .    317    307
1810  46.180  .  .    272    285
1811  46.200  .  .    262    267
1812  46.220  .  .    221    251
1813  46.240  .  .    222    236
1814  46.260  .  .    206    223
1815  46.280  .  .    195    211
1816  46.300  .  .    185    200
1817  46.320  .  .    190    190
1818  46.340  .  .    157    182
1819  46.360  .  .    147    174
1820  46.380  .  .    147    167
1821  46.400  .  .    150    161
1822  46.420  .  .    155    156
1823  46.440  .  .    140    151
1824  46.460  .  .    141    146
1825  46.480  .  .    143    142
1826  46.500  .  .    146    139
1827  46.520  .  .    143    135
1828  46.540  .  .    135    132
1829  46.560  .  .    136    129
1830  46.580  .  .    118    127
1831  46.600  .  .    129    124
1832  46.620  .  .    118    122
1833  46.640  .  .    133    120
1834  46.660  .  .    118    118
1835  46.680  .  .    117    117
1836  46.700  .  .    119    115
1837  46.720  .  .    111    113
1838  46.740  .  .    114    112
1839  46.760  .  .    139    111
1840  46.780  .  .    134    109
1841  46.800  .  .    134    108
1842  46.820  .  .    143    107
1843  46.840  .  .    182    106
1844  46.860  .  .    169    105
1845  46.880  .  .    196    104
1846  46.900  .  .    223    103
1847  46.920  .  .    275    103
1848  46.940  .  .    263    102
1849  46.960  .  .    350    101
1850  46.980  .  .    360    100
1851  47.000  .  .    387    100
1852  47.020  .  .    338     99
1853  47.040  .  .    355     98
1854  47.060  .  .    348     98
1855  47.080  .  .    298     97
1856  47.100  .  .    304     97
1857  47.120  .  .    305     96
1858  47.140  .  .    273     96
1859  47.160  .  .    265     95
1860  47.180  .  .    193     95
1861  47.200  .  .    209     95
1862  47.220  .  .    173     94
1863  47.240  .  .    187     94
1864  47.260  .  .    162     93
1865  47.280  .  .    142     93
1866  47.300  .  .    134     93
1867  47.320  .  .    128     92
1868  47.340  .  .    126     92
1869  47.360  .  .    144     92
1870  47.380  .  .     99     92
1871  47.400  .  .    129     91
1872  47.420  .  .    141     91
1873  47.440  .  .    131     91
1874  47.460  .  .    175     91
1875  47.480  .  .    179     90
1876  47.500  .  .    160     90
1877  47.520  .  .    168     90
1878  47.540  .  .    194     90
1879  47.560  .  .    184     89
1880  47.580  .  .    180     89
1881  47.600  .  .    140     89
1882  47.620  .  .    152     89
1883  47.640  .  .    124     89
1884  47.660  .  .    121     88
1885  47.680  .  .    146     88
1886  47.700  .  .    122     88
1887  47.720  .  .    102     88
1888  47.740  .  .     88     88
1889  47.760  .  .     85     87
1890  47.780  .  .     79     87
1891  47.800  .  .     89     87
1892  47.820  .  .     95     87
1893  47.840  .  .     90     87
1894  47.860  .  .     86     87
1895  47.880  .  .     94     87
1896  47.900  .  .     83     83
1897  47.920  .  .     90     83
1898  47.940  .  .    106     83
1899  47.960  .  .     83     83
1900  47.980  .  .     75     83
1901  48.000  .  .     89     83
1902  48.020  .  .     94     81
1903  48.040  .  .     81     81
1904  48.060  .  .     92     81
1905  48.080  .  .     65     81
1906  48.100  .  .     97     81
1907  48.120  .  .     88     81
1908  48.140  .  .     96     81
1909  48.160  .  .     83     81
1910  48.180  .  .     80     81
1911  48.200  .  .     88     81
1912  48.220  .  .     82     81
1913  48.240  .  .     91     81
1914  48.260  .  .     89     81
1915  48.280  .  .     83     81
1916  48.300  .  .     89     81
1917  48.320  .  .     93     81
1918  48.340  .  .     87     81
1919  48.360  .  .     84     81
1920  48.380  .  .    110     81
1921  48.400  .  .     98     81
1922  48.420  .  .    119     81
1923  48.440  .  .    149     81
1924  48.460  .  .    143     81
1925  48.480  .  .    159     81
1926  48.500  .  .    163     81
1927  48.520  .  .    147     81
1928  48.540  .  .    146     81
1929  48.560  .  .    152     81
1930  48.580  .  .    136     81
1931  48.600  .  .    120     81
1932  48.620  .  .    127     81
1933  48.640  .  .    110     81
1934  48.660  .  .    109     81
1935  48.680  .  .     89     81
1936  48.700  .  .     95     81
1937  48.720  .  .     96     81
1938  48.740  .  .    103     81
1939  48.760  .  .     95     81
1940  48.780  .  .     72     81
1941  48.800  .  .     74     81
1942  48.820  .  .     86     81
1943  48.840  .  .     71     81
1944  48.860  .  .     78     81
1945  48.880  .  .     81     81
1946  48.900  .  .     91     81
1947  48.920  .  .     79     81
1948  48.940  .  .     96     81
1949  48.960  .  .    113     81
1950  48.980  .  .     87     81
1951  49.000  .  .     90     81
1952  49.020  .  .     81     81
1953  49.040  .  .     84     81
1954  49.060  .  .    100     81
1955  49.080  .  .     77     81
1956  49.100  .  .     81     81
1957  49.120  .  .     89     81
1958  49.140  .  .     85     81
1959  49.160  .  .     82     81
1960  49.180  .  .     90     81
1961  49.200  .  .     85     81
1962  49.220  .  .     77     81
1963  49.240  .  .     85     81
1964  49.260  .  .     86     81
1965  49.280  .  .     86     81
1966  49.300  .  .     76     81
1967  49.320  .  .     84     81
1968  49.340  .  .     80     81
1969  49.360  .  .     70     81
1970  49.380  .  .     91     81
1971  49.400  .  .     78     81
1972  49.420  .  .     97     81
1973  49.440  .  .     77     81
1974  49.460  .  .     91     81
1975  49.480  .  .     61     81
1976  49.500  .  .     87     81
1977  49.520  .  .     91     81
1978  49.540  .  .     97     81
1979  49.560  .  .     85     81
1980  49.580  .  .     89     81
1981  49.600  .  .     89     81
1982  49.620  .  .     91     81
1983  49.640  .  .     90     81
1984  49.660  .  .     91     81
1985  49.680  .  .     86     81
1986  49.700  .  .     94     81
1987  49.720  .  .     84     81
1988  49.740  .  .     73     81
1989  49.760  .  .     76     81
1990  49.780  .  .     98     81
1991  49.800  .  .     97     81
1992  49.820  .  .     83     81
1993  49.840  .  .     93     81
1994  49.860  .  .     86     81
1995  49.880  .  .     83     81
1996  49.900  .  .     86     81
1997  49.920  .  .    104     81
1998  49.940  .  .     92     81
1999  49.960  .  .     83     81
2000  49.980  .  .     81     81
2001  50.000  .  .     87     81
2002  50.020  .  .     87     81
2003  50.040  .  .     88     81
2004  50.060  .  .     90     81
2005  50.080  .  .     84     81
2006  50.100  .  .     88     81
2007  50.120  .  .     93     81
2008  50.140  .  .     94     81
2009  50.160  .  .     95     81
2010  50.180  .  .     97     81
2011  50.200  .  .     98     81
2012  50.220  .  .    103     81
2013  50.240  .  .     93     81
2014  50.260  .  .     95     81
2015  50.280  .  .    109     81
2016  50.300  .  .     96     81
2017  50.320  .  .     81     81
2018  50.340  .  .     80     81
2019  50.360  .  .     92     81
2020  50.380  .  .     99     81
2021  50.400  .  .     83     81
2022  50.420  .  .     77     81
2023  50.440  .  .    100     81
2024  50.460  .  .     85     81
2025  50.480  .  .     82     81
2026  50.500  .  .     86     81
2027  50.520  .  .     94     81
2028  50.540  .  .     83     81
2029  50.560  .  .     77     81
2030  50.580  .  .     83     81
2031  50.600  .  .     89     81
2032  50.620  .  .     76     81
2033  50.640  .  .     86     81
2034  50.660  .  .     79     81
2035  50.680  .  .    100     81
2036  50.700  .  .     94     81
2037  50.720  .  .     84     81
2038  50.740  .  .     99     81
2039  50.760  .  .     68     81
2040  50.780  .  .    106     81
2041  50.800  .  .     84     81
2042  50.820  .  .     78     81
2043  50.840  .  .     76     81
2044  50.860  .  .     91     81
2045  50.880  .  .     87     81
2046  50.900  .  .    101     81
2047  50.920  .  .    102     81
2048  50.940  .  .     92     81
2049  50.960  .  .     74     81
2050  50.980  .  .     83     81
2051  51.000  .  .     75     81
2052  51.020  .  .     88     81
2053  51.040  .  .     82     81
2054  51.060  .  .     62     81
2055  51.080  .  .     98     81
2056  51.100  .  .     92     81
2057  51.120  .  .     82     81
2058  51.140  .  .     77     81
2059  51.160  .  .     83     81
2060  51.180  .  .     86     81
2061  51.200  .  .     84     81
2062  51.220  .  .     83     81
2063  51.240  .  .     81     81
2064  51.260  .  .     90     81
2065  51.280  .  .     84     81
2066  51.300  .  .     71     81
2067  51.320  .  .     90     81
2068  51.340  .  .     75     81
2069  51.360  .  .     82     81
2070  51.380  .  .     72     81
2071  51.400  .  .     76     81
2072  51.420  .  .     59     81
2073  51.440  .  .     77     81
2074  51.460  .  .     77     81
2075  51.480  .  .     90     81
2076  51.500  .  .     61     81
2077  51.520  .  .     95     81
2078  51.540  .  .     81     81
2079  51.560  .  .     65     81
2080  51.580  .  .     93     81
2081  51.600  .  .     75     81
2082  51.620  .  .     94     81
2083  51.640  .  .     81     81
2084  51.660  .  .     80     81
2085  51.680  .  .     72     81
2086  51.700  .  .     75     81
2087  51.720  .  .     69     81
2088  51.740  .  .     68     81
2089  51.760  .  .     83     81
2090  51.780  .  .     96     81
2091  51.800  .  .     83     81
2092  51.820  .  .     62     81
2093  51.840  .  .     76     81
2094  51.860  .  .     61     81
2095  51.880  .  .     86     81
2096  51.900  .  .     85     81
2097  51.920  .  .     90     81
2098  51.940  .  .     71     81
2099  51.960  .  .     78     81
2100  51.980  .  .     79     81
2101  52.000  .  .     80     81
2102  52.020  .  .     65     81
2103  52.040  .  .     87     81
2104  52.060  .  .     84     81
2105  52.080  .  .     86     81
2106  52.100  .  .     74     81
2107  52.120  .  .     93     81
2108  52.140  .  .     98     81
2109  52.160  .  .     94     81
2110  52.180  .  .     65     81
2111  52.200  .  .     99     81
2112  52.220  .  .     95     81
2113  52.240  .  .     82     81
2114  52.260  .  .     82     81
2115  52.280  .  .     79     81
2116  52.300  .  .     79     81
2117  52.320  .  .     94     81
2118  52.340  .  .     88     81
2119  52.360  .  .    101     81
2120  52.380  .  .     95     81
2121  52.400  .  .     93     81
2122  52.420  .  .     88     81
2123  52.440  .  .     85     81
2124  52.460  .  .    102     81
2125  52.480  .  .     82     81
2126  52.500  .  .     74     81
2127  52.520  .  .     82     81
2128  52.540  .  .     72     81
2129  52.560  .  .     89     81
2130  52.580  .  .     83     83
2131  52.600  .  .     77     83
2132  52.620  .  .     77     83
2133  52.640  .  .     80     83
2134  52.660  .  .     94     83
2135  52.680  .  .     92     84
2136  52.700  .  .     81     84
2137  52.720  .  .     74     85
2138  52.740  .  .     82     85
2139  52.760  .  .     93     85
2140  52.780  .  .     91     85
2141  52.800  .  .     97     85
2142  52.820  .  .     79     85
2143  52.840  .  .     74     85
2144  52.860  .  .     80     86
2145  52.880  .  .     72     86
2146  52.900  .  .     82     86
2147  52.920  .  .     73     86
2148  52.940  .  .     74     86
2149  52.960  .  .     78     86
2150  52.980  .  .     72     86
2151  53.000  .  .     83     87
2152  53.020  .  .     83     87
2153  53.040  .  .     73     87
2154  53.060  .  .     70     87
2155  53.080  .  .     82     87
2156  53.100  .  .     77     87
2157  53.120  .  .     78     88
2158  53.140  .  .     73     88
2159  53.160  .  .     82     88
2160  53.180  .  .     87     88
2161  53.200  .  .     73     88
2162  53.220  .  .     92     89
2163  53.240  .  .     93     89
2164  53.260  .  .    110     89
2165  53.280  .  .     89     89
2166  53.300  .  .     94     89
2167  53.320  .  .     91     90
2168  53.340  .  .     89     90
2169  53.360  .  .     98     90
2170  53.380  .  .     81     90
2171  53.400  .  .     97     91
2172  53.420  .  .     94     91
2173  53.440  .  .     88     91
2174  53.460  .  .     97     92
2175  53.480  .  .     84     92
2176  53.500  .  .     89     92
2177  53.520  .  .     79     93
2178  53.540  .  .     83     93
2179  53.560  .  .     86     93
2180  53.580  .  .    107     94
2181  53.600  .  .     75     94
2182  53.620  .  .     82     95
2183  53.640  .  .     99     95
2184  53.660  .  .    102     96
2185  53.680  .  .     87     96
2186  53.700  .  .     91     97
2187  53.720  .  .    110     98
2188  53.740  .  .     96     98
2189  53.760  .  .     98     99
2190  53.780  .  .     93    100
2191  53.800  .  .    102    101
2192  53.820  .  .     90    102
2193  53.840  .  .    123    103
2194  53.860  .  .    108    104
2195  53.880  .  .    102    105
2196  53.900  .  .    103    106
2197  53.920  .  .    111    107
2198  53.940  .  .    102    108
2199  53.960  .  .    111    110
2200  53.980  .  .    116    111
2201  54.000  .  .    121    113
2202  54.020  .  .    123    115
2203  54.040  .  .    105    117
2204  54.060  .  .    118    119
2205  54.080  .  .    132    122
2206  54.100  .  .    119    125
2207  54.120  .  .    114    128
2208  54.140  .  .    121    131
2209  54.160  .  .    148    135
2210  54.180  .  .    134    139
2211  54.200  .  .    141    144
2212  54.220  .  .    137    149
2213  54.240  .  .    126    155
2214  54.260  .  .    170    162
2215  54.280  .  .    170    171
2216  54.300  .  .    182    180
2217  54.320  .  .    192    192
2218  54.340  .  .    204    206
2219  54.360  .  .    248    224
2220  54.380  .  .    268    246
2221  54.400  .  .    265    273
2222  54.420  .  .    346    307
2223  54.440  .  .    389    354
2224  54.460  .  .    449    420
2225  54.480  .  .    531    524
2226  54.500  .  .    719    695
2227  54.520  .  .    968    971
2228  54.540  .  .   1334   1390
2229  54.560  .  .   2027   1986
2230  54.580  .  .   2842   2780
2231  54.600  .  .   3957   3767
2232  54.620  .  .   4972   4851
2233  54.640  .  .   6061   5750
2234  54.660  .  .   6121   6087
2235  54.680  .  .   5768   5740
2236  54.700  .  .   5062   4964
2237  54.720  .  .   3950   4147
2238  54.740  .  .   3497   3585
2239  54.760  .  .   3363   3385
2240  54.780  .  .   3441   3434
2241  54.800  .  .   3533   3471
2242  54.820  .  .   3546   3289
2243  54.840  .  .   2998   2899
2244  54.860  .  .   2723   2450
2245  54.880  .  .   2254   2096
2246  54.900  .  .   2090   1911
2247  54.920  .  .   2044   1858
2248  54.940  .  .   2004   1815
2249  54.960  .  .   1868   1684
2250  54.980  .  .   1608   1468
2251  55.000  .  .   1250   1234
2252  55.020  .  .    983   1053
2253  55.040  .  .    944    959
2254  55.060  .  .    905    939
2255  55.080  .  .    992    937
2256  55.100  .  .    913    890
2257  55.120  .  .    829    779
2258  55.140  .  .    610    631
2259  55.160  .  .    530    483
2260  55.180  .  .    349    362
2261  55.200  .  .    280    277
2262  55.220  .  .    225    224
2263  55.240  .  .    173    192
2264  55.260  .  .    153    173
2265  55.280  .  .    164    161
2266  55.300  .  .    165    153
2267  55.320  .  .    168    146
2268  55.340  .  .    130    141
2269  55.360  .  .    134    136
2270  55.380  .  .    137    132
2271  55.400  .  .    121    128
2272  55.420  .  .    130    125
2273  55.440  .  .    132    122
2274  55.460  .  .    136    120
2275  55.480  .  .     98    117
2276  55.500  .  .    120    115
2277  55.520  .  .    124    113
2278  55.540  .  .    125    111
2279  55.560  .  .    104    110
2280  55.580  .  .     98    108
2281  55.600  .  .    125    107
2282  55.620  .  .    107    105
2283  55.640  .  .    106    104
2284  55.660  .  .    130    103
2285  55.680  .  .    148    102
2286  55.700  .  .    140    101
2287  55.720  .  .    170    100
2288  55.740  .  .    183     99
2289  55.760  .  .    152     99
2290  55.780  .  .    176     98
2291  55.800  .  .    183     97
2292  55.820  .  .    156     97
2293  55.840  .  .    139     96
2294  55.860  .  .    140     95
2295  55.880  .  .    148     95
2296  55.900  .  .    139     94
2297  55.920  .  .    138     94
2298  55.940  .  .    121     93
2299  55.960  .  .    126     93
2300  55.980  .  .    129     93
2301  56.000  .  .    106     92
2302  56.020  .  .    110     92
2303  56.040  .  .     98     92
2304  56.060  .  .    101     91
2305  56.080  .  .    108     91
2306  56.100  .  .     96     91
2307  56.120  .  .     85     90
2308  56.140  .  .     87     90
2309  56.160  .  .    101     90
2310  56.180  .  .     93     90
2311  56.200  .  .     98     89
2312  56.220  .  .     96     89
2313  56.240  .  .     86     89
2314  56.260  .  .     99     89
2315  56.280  .  .     87     88
2316  56.300  .  .     84     88
2317  56.320  .  .     73     88
2318  56.340  .  .     96     88
2319  56.360  .  .     86     88
2320  56.380  .  .     67     88
2321  56.400  .  .     67     87
2322  56.420  .  .     94     87
2323  56.440  .  .     92     87
2324  56.460  .  .     78     87
2325  56.480  .  .     97     87
2326  56.500  .  .     91     87
2327  56.520  .  .     92     87
2328  56.540  .  .    104     86
2329  56.560  .  .     96     86
2330  56.580  .  .     99     86
2331  56.600  .  .     96     86
2332  56.620  .  .     89     86
2333  56.640  .  .     99     86
2334  56.660  .  .    101     86
2335  56.680  .  .    102     86
2336  56.700  .  .     92     86
2337  56.720  .  .     86     85
2338  56.740  .  .     82     84
2339  56.760  .  .     99     84
2340  56.780  .  .     78     84
2341  56.800  .  .     84     84
2342  56.820  .  .     65     84
2343  56.840  .  .     86     84
2344  56.860  .  .     79     84
2345  56.880  .  .     86     83
2346  56.900  .  .     85     84
2347  56.920  .  .     90     84
2348  56.940  .  .     87     84
2349  56.960  .  .     77     84
2350  56.980  .  .     85     84
2351  57.000  .  .     74     84
2352  57.020  .  .     64     84
2353  57.040  .  .     70     84
2354  57.060  .  .     89     84
2355  57.080  .  .     86     84
2356  57.100  .  .     96     84
2357  57.120  .  .     79     85
2358  57.140  .  .     82     85
2359  57.160  .  .     95     85
2360  57.180  .  .     78     84
2361  57.200  .  .     85     85
2362  57.220  .  .     82     85
2363  57.240  .  .     94     85
2364  57.260  .  .     78     85
2365  57.280  .  .     78     85
2366  57.300  .  .     98     85
2367  57.320  .  .     89     85
2368  57.340  .  .    104     85
2369  57.360  .  .    113     85
2370  57.380  .  .    139     85
2371  57.400  .  .    114     86
2372  57.420  .  .    117     86
2373  57.440  .  .     94     86
2374  57.460  .  .     87     86
2375  57.480  .  .     95     86
2376  57.500  .  .     89     86
2377  57.520  .  .    102     86
2378  57.540  .  .    105     87
2379  57.560  .  .     97     87
2380  57.580  .  .    102     87
2381  57.600  .  .     97     87
2382  57.620  .  .     99     87
2383  57.640  .  .     75     87
2384  57.660  .  .     88     88
2385  57.680  .  .     80     88
2386  57.700  .  .     88     88
2387  57.720  .  .     92     88
2388  57.740  .  .    110     89
2389  57.760  .  .     85     89
2390  57.780  .  .     83     89
2391  57.800  .  .     93     89
2392  57.820  .  .     74     90
2393  57.840  .  .     88     90
2394  57.860  .  .     68     90
2395  57.880  .  .     98     91
2396  57.900  .  .     88     91
2397  57.920  .  .    104     92
2398  57.940  .  .     75     92
2399  57.960  .  .     78     93
2400  57.980  .  .    104     93
2401  58.000  .  .     90     94
2402  58.020  .  .    100     94
2403  58.040  .  .     96     95
2404  58.060  .  .     94     96
2405  58.080  .  .     84     96
2406  58.100  .  .    101     97
2407  58.120  .  .    102     98
2408  58.140  .  .    106     99
2409  58.160  .  .    116    100
2410  58.180  .  .    108    101
2411  58.200  .  .    122    102
2412  58.220  .  .    103    103
2413  58.240  .  .    112    105
2414  58.260  .  .     92    106
2415  58.280  .  .    124    108
2416  58.300  .  .    105    110
2417  58.320  .  .    111    112
2418  58.340  .  .    115    114
2419  58.360  .  .     99    117
2420  58.380  .  .    120    120
2421  58.400  .  .    141    123
2422  58.420  .  .    140    127
2423  58.440  .  .    136    131
2424  58.460  .  .    128    137
2425  58.480  .  .    145    143
2426  58.500  .  .    152    150
2427  58.520  .  .    192    158
2428  58.540  .  .    184    169
2429  58.560  .  .    212    182
2430  58.580  .  .    216    198
2431  58.600  .  .    253    219
2432  58.620  .  .    260    249
2433  58.640  .  .    313    294
2434  58.660  .  .    400    367
2435  58.680  .  .    519    486
2436  58.700  .  .    719    675
2437  58.720  .  .    898    954
2438  58.740  .  .   1319   1337
2439  58.760  .  .   1852   1827
2440  58.780  .  .   2343   2389
2441  58.800  .  .   2895   2910
2442  58.820  .  .   3020   3197
2443  58.840  .  .   3055   3131
2444  58.860  .  .   2698   2793
2445  58.880  .  .   2359   2384
2446  58.900  .  .   2004   2089
2447  58.920  .  .   1920   2015
2448  58.940  .  .   2034   2175
2449  58.960  .  .   2405   2487
2450  58.980  .  .   2642   2798
2451  59.000  .  .   2867   2960
2452  59.020  .  .   2908   2888
2453  59.040  .  .   2615   2577
2454  59.060  .  .   2130   2121
2455  59.080  .  .   1625   1657
2456  59.100  .  .   1206   1290
2457  59.120  .  .   1042   1068
2458  59.140  .  .    971    984
2459  59.160  .  .    963    987
2460  59.180  .  .    967   1000
2461  59.200  .  .    977    953
2462  59.220  .  .    840    832
2463  59.240  .  .    677    669
2464  59.260  .  .    545    507
2465  59.280  .  .    371    375
2466  59.300  .  .    268    281
2467  59.320  .  .    228    222
2468  59.340  .  .    156    187
2469  59.360  .  .    162    167
2470  59.380  .  .    148    154
2471  59.400  .  .    158    145
2472  59.420  .  .    130    138
2473  59.440  .  .    125    132
2474  59.460  .  .    107    128
2475  59.480  .  .    114    124
2476  59.500  .  .    109    120
2477  59.520  .  .    105    117
2478  59.540  .  .    112    115
2479  59.560  .  .     93    112
2480  59.580  .  .    105    110
2481  59.600  .  .    101    108
2482  59.620  .  .     94    106
2483  59.640  .  .    110    105
2484  59.660  .  .     91    103
2485  59.680  .  .    102    102
2486  59.700  .  .     92    101
2487  59.720  .  .     97     99
2488  59.740  .  .     95     98
2489  59.760  .  .     97     97
2490  59.780  .  .     85     97
2491  59.800  .  .    115     96
2492  59.820  .  .     66     95
2493  59.840  .  .     95     94
2494  59.860  .  .     85     94
2495  59.880  .  .     99     93
2496  59.900  .  .     81     93
2497  59.920  .  .     71     92
2498  59.940  .  .     70     92
2499  59.960  .  .     67     91
2500  59.980  .  .     90     91
2501  60.000  .  .     83     90
2502  60.020  .  .     79     90
2503  60.040  .  .     69     89
2504  60.060  .  .     61     89
2505  60.080  .  .     93     89
2506  60.100  .  .     69     89
2507  60.120  .  .     88     88
2508  60.140  .  .     68     88
2509  60.160  .  .     94     88
2510  60.180  .  .     84     87
2511  60.200  .  .     83     87
2512  60.220  .  .     84     87
2513  60.240  .  .     64     87
2514  60.260  .  .     72     87
2515  60.280  .  .     67     86
2516  60.300  .  .     78     86
2517  60.320  .  .     78     86
2518  60.340  .  .     65     86
2519  60.360  .  .     70     86
2520  60.380  .  .     94     85
2521  60.400  .  .     66     85
2522  60.420  .  .     82     85
2523  60.440  .  .     65     85
2524  60.460  .  .     82     85
2525  60.480  .  .     64     85
2526  60.500  .  .     71     85
2527  60.520  .  .     85     85
2528  60.540  .  .     67     84
2529  60.560  .  .     81     84
2530  60.580  .  .     87     84
2531  60.600  .  .     89     84
2532  60.620  .  .     92     84
2533  60.640  .  .    102     84
2534  60.660  .  .    115     84
2535  60.680  .  .    110     84
2536  60.700  .  .    102     84
2537  60.720  .  .     80     84
2538  60.740  .  .     80     83
2539  60.760  .  .     97     83
2540  60.780  .  .     67     83
2541  60.800  .  .     77     83
2542  60.820  .  .     95     83
2543  60.840  .  .     83     83
2544  60.860  .  .     88     83
2545  60.880  .  .     76     83
2546  60.900  .  .     79     83
2547  60.920  .  .    100     82
2548  60.940  .  .     81     82
2549  60.960  .  .     84     82
2550  60.980  .  .     82     82
2551  61.000  .  .     81     82
2552  61.020  .  .     83     82
2553  61.040  .  .     91     82
2554  61.060  .  .     85     82
2555  61.080  .  .     65     82
2556  61.100  .  .     63     82
2557  61.120  .  .     72     81
2558  61.140  .  .     73     81
2559  61.160  .  .     87     81
2560  61.180  .  .     86     81
2561  61.200  .  .     86     81
2562  61.220  .  .     85     81
2563  61.240  .  .     62     81
2564  61.260  .  .     76     81
2565  61.280  .  .     75     81
2566  61.300  .  .     75     81
2567  61.320  .  .     85     81
2568  61.340  .  .     79     81
2569  61.360  .  .     79     81
2570  61.380  .  .     79     81
2571  61.400  .  .     91     81
2572  61.420  .  .     91     81
2573  61.440  .  .     90     81
2574  61.460  .  .     74     81
2575  61.480  .  .     95     81
2576  61.500  .  .     82     81
2577  61.520  .  .     87     81
2578  61.540  .  .     90     81
2579  61.560  .  .     88     82
2580  61.580  .  .     76     82
2581  61.600  .  .     67     82
2582  61.620  .  .     74     82
2583  61.640  .  .     73     82
2584  61.660  .  .     67     82
2585  61.680  .  .     72     82
2586  61.700  .  .     65     82
2587  61.720  .  .     66     82
2588  61.740  .  .     70     82
2589  61.760  .  .     69     82
2590  61.780  .  .     75     82
2591  61.800  .  .     81     82
2592  61.820  .  .     82     82
2593  61.840  .  .     74     82
2594  61.860  .  .     47     82
2595  61.880  .  .     72     83
2596  61.900  .  .     67     83
2597  61.920  .  .     75     83
2598  61.940  .  .     88     83
2599  61.960  .  .     63     83
2600  61.980  .  .     77     83
2601  62.000  .  .     76     83
2602  62.020  .  .     61     84
2603  62.040  .  .     81     84
2604  62.060  .  .     68     84
2605  62.080  .  .     63     84
2606  62.100  .  .     67     84
2607  62.120  .  .     74     85
2608  62.140  .  .     78     85
2609  62.160  .  .     81     85
2610  62.180  .  .     59     86
2611  62.200  .  .     68     86
2612  62.220  .  .     82     87
2613  62.240  .  .     61     87
2614  62.260  .  .     67     88
2615  62.280  .  .     76     89
2616  62.300  .  .     71     90
2617  62.320  .  .     56     92
2618  62.340  .  .     79     96
2619  62.360  .  .     79    101
2620  62.380  .  .    103    109
2621  62.400  .  .    114    120
2622  62.420  .  .    120    134
2623  62.440  .  .    133    150
2624  62.460  .  .    131    165
2625  62.480  .  .    148    174
2626  62.500  .  .    123    172
2627  62.520  .  .    148    163
2628  62.540  .  .    138    150
2629  62.560  .  .    111    139
2630  62.580  .  .    101    133
2631  62.600  .  .    125    133
2632  62.620  .  .    129    136
2633  62.640  .  .    128    141
2634  62.660  .  .    111    143
2635  62.680  .  .    123    140
2636  62.700  .  .    128    135
2637  62.720  .  .    116    129
2638  62.740  .  .    112    124
2639  62.760  .  .    133    122
2640  62.780  .  .    130    122
2641  62.800  .  .    116    125
2642  62.820  .  .    124    130
2643  62.840  .  .    123    137
2644  62.860  .  .    144    148
2645  62.880  .  .    162    163
2646  62.900  .  .    210    189
2647  62.920  .  .    244    231
2648  62.940  .  .    298    302
2649  62.960  .  .    406    414
2650  62.980  .  .    528    577
2651  63.000  .  .    803    798
2652  63.020  .  .   1079   1072
2653  63.040  .  .   1377   1365
2654  63.060  .  .   1686   1601
2655  63.080  .  .   1741   1679
2656  63.100  .  .   1688   1570
2657  63.120  .  .   1338   1341
2658  63.140  .  .    998   1090
2659  63.160  .  .    784    899
2660  63.180  .  .    709    806
2661  63.200  .  .    679    809
2662  63.220  .  .    843    870
2663  63.240  .  .    872    922
2664  63.260  .  .    905    905
2665  63.280  .  .    808    804
2666  63.300  .  .    655    652
2667  63.320  .  .    497    493
2668  63.340  .  .    345    358
2669  63.360  .  .    250    260
2670  63.380  .  .    199    198
2671  63.400  .  .    165    161
2672  63.420  .  .    141    140
2673  63.440  .  .    107    127
2674  63.460  .  .    110    119
2675  63.480  .  .     89    114
2676  63.500  .  .    103    110
2677  63.520  .  .     84    106
2678  63.540  .  .     78    104
2679  63.560  .  .     88    101
2680  63.580  .  .     93     99
2681  63.600  .  .     88     97
2682  63.620  .  .     91     96
2683  63.640  .  .     64     94
2684  63.660  .  .     92     93
2685  63.680  .  .     94     92
2686  63.700  .  .     91     91
2687  63.720  .  .     76     90
2688  63.740  .  .     85     90
2689  63.760  .  .     75     89
2690  63.780  .  .     64     88
2691  63.800  .  .     80     88
2692  63.820  .  .     75     87
2693  63.840  .  .     70     87
2694  63.860  .  .     52     86
2695  63.880  .  .     76     86
2696  63.900  .  .     75     85
2697  63.920  .  .     77     85
2698  63.940  .  .     86     85
2699  63.960  .  .     62     84
2700  63.980  .  .     67     84
2701  64.000  .  .     65     84
2702  64.020  .  .     86     84
2703  64.040  .  .     76     83
2704  64.060  .  .     59     83
2705  64.080  .  .     71     83
2706  64.100  .  .     57     83
2707  64.120  .  .     66     83
2708  64.140  .  .     58     82
2709  64.160  .  .     60     82
2710  64.180  .  .     62     82
2711  64.200  .  .     73     82
2712  64.220  .  .     71     82
2713  64.240  .  .     76     82
2714  64.260  .  .     76     82
2715  64.280  .  .     65     82
2716  64.300  .  .     61     82
2717  64.320  .  .     61     82
2718  64.340  .  .     60     81
2719  64.360  .  .     59     81
2720  64.380  .  .     60     81
2721  64.400  .  .     61     81
2722  64.420  .  .     84     81
2723  64.440  .  .     64     81
2724  64.460  .  .     61     81
2725  64.480  .  .     68     81
2726  64.500  .  .     72     81
2727  64.520  .  .     60     81
2728  64.540  .  .     73     81
2729  64.560  .  .     71     81
2730  64.580  .  .     59     81
2731  64.600  .  .     88     81
2732  64.620  .  .     84     81
2733  64.640  .  .     93     81
2734  64.660  .  .     74     81
2735  64.680  .  .     94     81
2736  64.700  .  .     94     81
2737  64.720  .  .     63     81
2738  64.740  .  .     71     81
2739  64.760  .  .     80     81
2740  64.780  .  .     64     81
2741  64.800  .  .     88     81
2742  64.820  .  .     94     81
2743  64.840  .  .     68     81
2744  64.860  .  .     80     80
2745  64.880  .  .     71     80
2746  64.900  .  .     74     80
2747  64.920  .  .     55     80
2748  64.940  .  .     68     80
2749  64.960  .  .     71     80
2750  64.980  .  .     66     80
2751  65.000  .  .     66     80
2752  65.020  .  .     57     80
2753  65.040  .  .     46     81
2754  65.060  .  .     68     81
2755  65.080  .  .     51     81
2756  65.100  .  .     64     81
2757  65.120  .  .     62     81
2758  65.140  .  .     68     81
2759  65.160  .  .     61     81
2760  65.180  .  .     74     80
2761  65.200  .  .     43     80
2762  65.220  .  .     59     80
2763  65.240  .  .     80     80
2764  65.260  .  .     83     80
2765  65.280  .  .     58     80
2766  65.300  .  .     78     80
2767  65.320  .  .     74     80
2768  65.340  .  .     62     80
2769  65.360  .  .     77     80
2770  65.380  .  .     73     80
2771  65.400  .  .     71     80
2772  65.420  .  .     68     81
2773  65.440  .  .     73     81
2774  65.460  .  .     69     81
2775  65.480  .  .     63     81
2776  65.500  .  .     73     81
2777  65.520  .  .     89     81
2778  65.540  .  .     76     81
2779  65.560  .  .     77     81
2780  65.580  .  .     86     82
2781  65.600  .  .     68     82
2782  65.620  .  .     75     82
2783  65.640  .  .     71     82
2784  65.660  .  .     86     82
2785  65.680  .  .     71     83
2786  65.700  .  .     77     83
2787  65.720  .  .     91     83
2788  65.740  .  .     75     84
2789  65.760  .  .     66     84
2790  65.780  .  .     87     85
2791  65.800  .  .     79     85
2792  65.820  .  .     71     85
2793  65.840  .  .     79     86
2794  65.860  .  .     75     87
2795  65.880  .  .     71     87
2796  65.900  .  .     81     88
2797  65.920  .  .     92     89
2798  65.940  .  .     78     90
2799  65.960  .  .     86     91
2800  65.980  .  .     93     93
2801  66.000  .  .     90     95
2802  66.020  .  .     94     96
2803  66.040  .  .     95     99
2804  66.060  .  .     97    102
2805  66.080  .  .     89    105
2806  66.100  .  .    116    109
2807  66.120  .  .    115    115
2808  66.140  .  .    111    122
2809  66.160  .  .    137    134
2810  66.180  .  .    169    154
2811  66.200  .  .    165    188
2812  66.220  .  .    214    242
2813  66.240  .  .    293    325
2814  66.260  .  .    406    443
2815  66.280  .  .    568    598
2816  66.300  .  .    806    778
2817  66.320  .  .    963    950
2818  66.340  .  .   1081   1056
2819  66.360  .  .   1046   1049
2820  66.380  .  .    943    940
2821  66.400  .  .    769    782
2822  66.420  .  .    622    633
2823  66.440  .  .    499    530
2824  66.460  .  .    457    490
2825  66.480  .  .    496    506
2826  66.500  .  .    551    553
2827  66.520  .  .    617    596
2828  66.540  .  .    596    595
2829  66.560  .  .    551    542
2830  66.580  .  .    473    454
2831  66.600  .  .    368    358
2832  66.620  .  .    263    273
2833  66.640  .  .    227    210
2834  66.660  .  .    175    169
2835  66.680  .  .    161    147
2836  66.700  .  .    155    138
2837  66.720  .  .    141    139
2838  66.740  .  .    148    149
2839  66.760  .  .    173    168
2840  66.780  .  .    171    196
2841  66.800  .  .    199    233
2842  66.820  .  .    233    272
2843  66.840  .  .    278    304
2844  66.860  .  .    284    314
2845  66.880  .  .    302    298
2846  66.900  .  .    236    265
2847  66.920  .  .    185    228
2848  66.940  .  .    155    197
2849  66.960  .  .    156    180
2850  66.980  .  .    130    177
2851  67.000  .  .    150    184
2852  67.020  .  .    184    195
2853  67.040  .  .    185    201
2854  67.060  .  .    181    196
2855  67.080  .  .    145    179
2856  67.100  .  .    124    157
2857  67.120  .  .    118    135
2858  67.140  .  .     97    117
2859  67.160  .  .    100    105
2860  67.180  .  .     79     96
2861  67.200  .  .     76     91
2862  67.220  .  .     71     89
2863  67.240  .  .     69     87
2864  67.260  .  .     60     85
2865  67.280  .  .     73     85
2866  67.300  .  .     76     84
2867  67.320  .  .     70     83
2868  67.340  .  .     77     83
2869  67.360  .  .     54     82
2870  67.380  .  .     58     82
2871  67.400  .  .     65     81
2872  67.420  .  .     66     81
2873  67.440  .  .     77     81
2874  67.460  .  .     57     81
2875  67.480  .  .     50     80
2876  67.500  .  .     57     80
2877  67.520  .  .     68     80
2878  67.540  .  .     53     80
2879  67.560  .  .     76     79
2880  67.580  .  .     56     79
2881  67.600  .  .     65     79
2882  67.620  .  .     62     79
2883  67.640  .  .     64     79
2884  67.660  .  .     59     79
2885  67.680  .  .     61     79
2886  67.700  .  .     61     79
2887  67.720  .  .     62     78
2888  67.740  .  .     64     78
2889  67.760  .  .     64     78
2890  67.780  .  .     48     78
2891  67.800  .  .     54     78
2892  67.820  .  .     57     78
2893  67.840  .  .     59     78
2894  67.860  .  .     70     78
2895  67.880  .  .     67     78
2896  67.900  .  .     56     78
2897  67.920  .  .     59     78
2898  67.940  .  .     74     78
2899  67.960  .  .     70     77
2900  67.980  .  .     65     77
2901  68.000  .  .     67     77
2902  68.020  .  .     43     77
2903  68.040  .  .     74     77
2904  68.060  .  .     64     77
2905  68.080  .  .     74     77
2906  68.100  .  .     58     77
2907  68.120  .  .     70     77
2908  68.140  .  .     64     77
2909  68.160  .  .     54     77
2910  68.180  .  .     57     77
2911  68.200  .  .     59     77
2912  68.220  .  .     46     77
2913  68.240  .  .     74     77
2914  68.260  .  .     67     77
2915  68.280  .  .     50     77
2916  68.300  .  .     48     77
2917  68.320  .  .     63     77
2918  68.340  .  .     67     77
2919  68.360  .  .     69     77
2920  68.380  .  .     43     77
2921  68.400  .  .     62     77
2922  68.420  .  .     54     77
2923  68.440  .  .     52     77
2924  68.460  .  .     64     77
2925  68.480  .  .     75     77
2926  68.500  .  .     73     77
2927  68.520  .  .     71     77
2928  68.540  .  .     67     77
2929  68.560  .  .     77     77
2930  68.580  .  .     79     77
2931  68.600  .  .     75     77
2932  68.620  .  .     73     77
2933  68.640  .  .    102     77
2934  68.660  .  .    100     76
2935  68.680  .  .     84     76
2936  68.700  .  .     88     76
2937  68.720  .  .     88     76
2938  68.740  .  .     66     76
2939  68.760  .  .     87     76
2940  68.780  .  .     69     76
2941  68.800  .  .    103     76
2942  68.820  .  .     73     76
2943  68.840  .  .     83     76
2944  68.860  .  .     91     76
2945  68.880  .  .     70     76
2946  68.900  .  .     74     76
2947  68.920  .  .     78     76
2948  68.940  .  .     80     76
2949  68.960  .  .     78     76
2950  68.980  .  .     63     77
2951  69.000  .  .     74     76
2952  69.020  .  .     70     76
2953  69.040  .  .     73     76
2954  69.060  .  .     63     77
2955  69.080  .  .     59     77
2956  69.100  .  .     59     77
2957  69.120  .  .     77     77
2958  69.140  .  .     73     77
2959  69.160  .  .     74     77
2960  69.180  .  .     78     77
2961  69.200  .  .     62     77
2962  69.220  .  .     77     77
2963  69.240  .  .     63     77
2964  69.260  .  .     62     77
2965  69.280  .  .     51     77
2966  69.300  .  .     64     77
2967  69.320  .  .     58     77
2968  69.340  .  .     68     77
2969  69.360  .  .     69     77
2970  69.380  .  .     73     77
2971  69.400  .  .     70     77
2972  69.420  .  .     70     77
2973  69.440  .  .     56     77
2974  69.460  .  .     68     77
2975  69.480  .  .     56     78
2976  69.500  .  .     62     78
2977  69.520  .  .     61     78
2978  69.540  .  .     73     78
2979  69.560  .  .     68     78
2980  69.580  .  .     73     78
2981  69.600  .  .     64     78
2982  69.620  .  .     63     78
2983  69.640  .  .     60     79
2984  69.660  .  .     68     79
2985  69.680  .  .     79     79
2986  69.700  .  .     54     79
2987  69.720  .  .     69     79
2988  69.740  .  .     65     80
2989  69.760  .  .     83     80
2990  69.780  .  .     78     80
2991  69.800  .  .     61     81
2992  69.820  .  .     56     81
2993  69.840  .  .     62     81
2994  69.860  .  .     74     82
2995  69.880  .  .     68     82
2996  69.900  .  .     84     83
2997  69.920  .  .     87     84
2998  69.940  .  .     81     84
2999  69.960  .  .     71     85
3000  69.980  .  .     79     86
3001  70.000  .  .     79     87
3002  70.020  .  .     91     89
3003  70.040  .  .     78     90
3004  70.060  .  .     74     92
3005  70.080  .  .     93     94
3006  70.100  .  .    115     96
3007  70.120  .  .     86     99
3008  70.140  .  .     89    102
3009  70.160  .  .     88    106
3010  70.180  .  .    114    111
3011  70.200  .  .    120    119
3012  70.220  .  .    159    130
3013  70.240  .  .    163    150
3014  70.260  .  .    200    183
3015  70.280  .  .    228    237
3016  70.300  .  .    324    321
3017  70.320  .  .    435    441
3018  70.340  .  .    603    600
3019  70.360  .  .    790    787
3020  70.380  .  .    894    970
3021  70.400  .  .   1037   1091
3022  70.420  .  .   1017   1100
3023  70.440  .  .    885    999
3024  70.460  .  .    753    836
3025  70.480  .  .    638    669
3026  70.500  .  .    460    540
3027  70.520  .  .    436    472
3028  70.540  .  .    411    466
3029  70.560  .  .    472    507
3030  70.580  .  .    535    569
3031  70.600  .  .    554    613
3032  70.620  .  .    540    609
3033  70.640  .  .    487    551
3034  70.660  .  .    413    459
3035  70.680  .  .    339    359
3036  70.700  .  .    268    272
3037  70.720  .  .    195    206
3038  70.740  .  .    164    161
3039  70.760  .  .    139    133
3040  70.780  .  .    115    117
3041  70.800  .  .    118    108
3042  70.820  .  .     91    102
3043  70.840  .  .     82     98
3044  70.860  .  .    100     94
3045  70.880  .  .     97     92
3046  70.900  .  .     59     90
3047  70.920  .  .     70     88
3048  70.940  .  .     81     87
3049  70.960  .  .     90     86
3050  70.980  .  .     75     85
3051  71.000  .  .     63     84
3052  71.020  .  .     79     83
3053  71.040  .  .     83     82
3054  71.060  .  .     74     82
3055  71.080  .  .     66     81
3056  71.100  .  .     52     80
3057  71.120  .  .     51     80
3058  71.140  .  .     69     80
3059  71.160  .  .     73     79
3060  71.180  .  .     59     79
3061  71.200  .  .     58     78
3062  71.220  .  .     76     78
3063  71.240  .  .     72     78
3064  71.260  .  .     61     78
3065  71.280  .  .     67     77
3066  71.300  .  .     67     77
3067  71.320  .  .     65     77
3068  71.340  .  .     67     77
3069  71.360  .  .     76     77
3070  71.380  .  .     52     76
3071  71.400  .  .     73     76
3072  71.420  .  .     63     76
3073  71.440  .  .     63     76
3074  71.460  .  .     61     76
3075  71.480  .  .     68     76
3076  71.500  .  .     55     76
3077  71.520  .  .     52     75
3078  71.540  .  .     62     75
3079  71.560  .  .     47     75
3080  71.580  .  .     72     75
3081  71.600  .  .     62     75
3082  71.620  .  .     61     75
3083  71.640  .  .     75     75
3084  71.660  .  .     50     75
3085  71.680  .  .     59     75
3086  71.700  .  .     68     75
3087  71.720  .  .     63     75
3088  71.740  .  .     59     74
3089  71.760  .  .     68     74
3090  71.780  .  .     46     74
3091  71.800  .  .     59     74
3092  71.820  .  .     66     74
3093  71.840  .  .     77     74
3094  71.860  .  .     55     74
3095  71.880  .  .     71     74
3096  71.900  .  .     63     74
3097  71.920  .  .     64     74
3098  71.940  .  .     51     74
3099  71.960  .  .     60     74
3100  71.980  .  .     64     74
3101  72.000  .  .     51     74
3102  72.020  .  .     76     74
3103  72.040  .  .     54     74
3104  72.060  .  .     55     74
3105  72.080  .  .     61     74
3106  72.100  .  .     69     74
3107  72.120  .  .     72     74
3108  72.140  .  .     48     74
3109  72.160  .  .     66     74
3110  72.180  .  .     66     74
3111  72.200  .  .     48     74
3112  72.220  .  .     64     74
3113  72.240  .  .     73     74
3114  72.260  .  .     69     74
3115  72.280  .  .     53     74
3116  72.300  .  .     61     74
3117  72.320  .  .     69     74
3118  72.340  .  .     62     74
3119  72.360  .  .     71     74
3120  72.380  .  .     50     74
3121  72.400  .  .     46     74
3122  72.420  .  .     62     74
3123  72.440  .  .     66     74
3124  72.460  .  .     53     74
3125  72.480  .  .     57     74
3126  72.500  .  .     69     74
3127  72.520  .  .     51     74
3128  72.540  .  .     67     74
3129  72.560  .  .     75     74
3130  72.580  .  .     70     74
3131  72.600  .  .     54     74
3132  72.620  .  .     70     74
3133  72.640  .  .     60     74
3134  72.660  .  .     52     74
3135  72.680  .  .     56     74
3136  72.700  .  .     63     74
3137  72.720  .  .     59     74
3138  72.740  .  .     77     74
3139  72.760  .  .     56     74
3140  72.780  .  .     52     74
3141  72.800  .  .     63     74
3142  72.820  .  .     66     74
3143  72.840  .  .     81     74
3144  72.860  .  .     75     74
3145  72.880  .  .     97     74
3146  72.900  .  .     92     74
3147  72.920  .  .     84     74
3148  72.940  .  .     93     74
3149  72.960  .  .     77     74
3150  72.980  .  .     77     74
3151  73.000  .  .     66     74
3152  73.020  .  .     63     74
3153  73.040  .  .     66     74
3154  73.060  .  .     61     75
3155  73.080  .  .     71     75
3156  73.100  .  .     80     75
3157  73.120  .  .     89     75
3158  73.140  .  .     77     75
3159  73.160  .  .     85     75
3160  73.180  .  .     67     75
3161  73.200  .  .     71     75
3162  73.220  .  .     75     75
3163  73.240  .  .     71     75
3164  73.260  .  .     69     76
3165  73.280  .  .     66     76
3166  73.300  .  .     62     76
3167  73.320  .  .     69     76
3168  73.340  .  .     60     76
3169  73.360  .  .     70     76
3170  73.380  .  .     65     77
3171  73.400  .  .     74     77
3172  73.420  .  .     71     77
3173  73.440  .  .     53     78
3174  73.460  .  .     70     78
3175  73.480  .  .     73     78
3176  73.500  .  .     77     79
3177  73.520  .  .     64     79
3178  73.540  .  .     78     80
3179  73.560  .  .     73     80
3180  73.580  .  .     77     81
3181  73.600  .  .     90     82
3182  73.620  .  .     76     84
3183  73.640  .  .     78     87
3184  73.660  .  .     95     91
3185  73.680  .  .    103     97
3186  73.700  .  .     89    104
3187  73.720  .  .    116    112
3188  73.740  .  .    108    120
3189  73.760  .  .    105    124
3190  73.780  .  .    106    124
3191  73.800  .  .    104    120
3192  73.820  .  .    134    115
3193  73.840  .  .    104    110
3194  73.860  .  .    120    107
3195  73.880  .  .    116    106
3196  73.900  .  .    105    107
3197  73.920  .  .    113    111
3198  73.940  .  .    122    116
3199  73.960  .  .    123    121
3200  73.980  .  .    120    125
3201  74.000  .  .    124    128
3202  74.020  .  .    157    129
3203  74.040  .  .    152    131
3204  74.060  .  .    132    134
3205  74.080  .  .    140    139
3206  74.100  .  .    157    150
3207  74.120  .  .    198    167
3208  74.140  .  .    228    199
3209  74.160  .  .    308    253
3210  74.180  .  .    337    343
3211  74.200  .  .    479    484
3212  74.220  .  .    644    687
3213  74.240  .  .    968    955
3214  74.260  .  .   1257   1270
3215  74.280  .  .   1567   1581
3216  74.300  .  .   1787   1797
3217  74.320  .  .   1781   1831
3218  74.340  .  .   1620   1678
3219  74.360  .  .   1345   1410
3220  74.380  .  .    997   1118
3221  74.400  .  .    716    875
3222  74.420  .  .    641    722
3223  74.440  .  .    576    671
3224  74.460  .  .    645    711
3225  74.480  .  .    780    810
3226  74.500  .  .    876    924
3227  74.520  .  .    970    993
3228  74.540  .  .    936    974
3229  74.560  .  .    909    869
3230  74.580  .  .    619    714
3231  74.600  .  .    551    551
3232  74.620  .  .    348    407
3233  74.640  .  .    268    297
3234  74.660  .  .    208    222
3235  74.680  .  .    172    175
3236  74.700  .  .    151    147
3237  74.720  .  .    139    130
3238  74.740  .  .    127    119
3239  74.760  .  .    125    112
3240  74.780  .  .     94    106
3241  74.800  .  .    106    102
3242  74.820  .  .    104     98
3243  74.840  .  .     90     96
3244  74.860  .  .    103     93
3245  74.880  .  .    100     91
3246  74.900  .  .     86     89
3247  74.920  .  .     78     88
3248  74.940  .  .     80     86
3249  74.960  .  .     89     85
3250  74.980  .  .     62     84
3251  75.000  .  .     85     83
3252  75.020  .  .     65     82
3253  75.040  .  .     83     81
3254  75.060  .  .     76     80
3255  75.080  .  .     77     80
3256  75.100  .  .     79     79
3257  75.120  .  .     72     79
3258  75.140  .  .     71     79
3259  75.160  .  .     72     78
3260  75.180  .  .     65     78
3261  75.200  .  .     73     77
3262  75.220  .  .     83     77
3263  75.240  .  .     58     77
3264  75.260  .  .     85     76
3265  75.280  .  .     74     76
3266  75.300  .  .     80     76
3267  75.320  .  .     69     75
3268  75.340  .  .     77     76
3269  75.360  .  .     69     75
3270  75.380  .  .     68     75
3271  75.400  .  .     61     75
3272  75.420  .  .     72     75
3273  75.440  .  .     56     75
3274  75.460  .  .     65     75
3275  75.480  .  .     75     75
3276  75.500  .  .     72     75
3277  75.520  .  .     71     75
3278  75.540  .  .     62     74
3279  75.560  .  .     76     74
3280  75.580  .  .     95     74
3281  75.600  .  .     63     74
3282  75.620  .  .     82     74
3283  75.640  .  .     75     74
3284  75.660  .  .     78     74
3285  75.680  .  .     83     74
3286  75.700  .  .     78     74
3287  75.720  .  .     83     74
3288  75.740  .  .     73     74
3289  75.760  .  .     77     74
3290  75.780  .  .     80     74
3291  75.800  .  .     92     74
3292  75.820  .  .     93     74
3293  75.840  .  .     85     74
3294  75.860  .  .     96     74
3295  75.880  .  .     83     74
3296  75.900  .  .     78     74
3297  75.920  .  .     69     74
3298  75.940  .  .     73     74
3299  75.960  .  .     77     74
3300  75.980  .  .     77     74
3301  76.000  .  .     84     74
3302  76.020  .  .     86     74
3303  76.040  .  .     77     74
3304  76.060  .  .     91     74
3305  76.080  .  .     82     74
3306  76.100  .  .     80     74
3307  76.120  .  .     81     74
3308  76.140  .  .     74     74
3309  76.160  .  .     74     74
3310  76.180  .  .     90     74
3311  76.200  .  .     92     74
3312  76.220  .  .    108     75
3313  76.240  .  .     91     75
3314  76.260  .  .     88     75
3315  76.280  .  .     92     75
3316  76.300  .  .     95     75
3317  76.320  .  .     70     75
3318  76.340  .  .     78     75
3319  76.360  .  .     90     75
3320  76.380  .  .     71     76
3321  76.400  .  .     80     76
3322  76.420  .  .     77     76
3323  76.440  .  .     90     76
3324  76.460  .  .     85     76
3325  76.480  .  .     73     77
3326  76.500  .  .     82     77
3327  76.520  .  .     72     76
3328  76.540  .  .     73     77
3329  76.560  .  .     78     77
3330  76.580  .  .     80     77
3331  76.600  .  .     76     78
3332  76.620  .  .     85     78
3333  76.640  .  .     91     79
3334  76.660  .  .     85     79
3335  76.680  .  .     66     80
3336  76.700  .  .     80     80
3337  76.720  .  .     82     81
3338  76.740  .  .     76     81
3339  76.760  .  .     88     82
3340  76.780  .  .    105     82
3341  76.800  .  .     75     83
3342  76.820  .  .     72     84
3343  76.840  .  .     93     85
3344  76.860  .  .     75     86
3345  76.880  .  .     89     88
3346  76.900  .  .     97     89
3347  76.920  .  .     91     91
3348  76.940  .  .     94     92
3349  76.960  .  .    105     94
3350  76.980  .  .    115     96
3351  77.000  .  .    108     99
3352  77.020  .  .    120    102
3353  77.040  .  .    103    105
3354  77.060  .  .    114    109
3355  77.080  .  .    134    113
3356  77.100  .  .    157    118
3357  77.120  .  .    125    124
3358  77.140  .  .    185    133
3359  77.160  .  .    212    146
3360  77.180  .  .    202    166
3361  77.200  .  .    253    200
3362  77.220  .  .    309    257
3363  77.240  .  .    371    346
3364  77.260  .  .    457    479
3365  77.280  .  .    662    662
3366  77.300  .  .    851    889
3367  77.320  .  .   1032   1135
3368  77.340  .  .   1278   1345
3369  77.360  .  .   1312   1449
3370  77.380  .  .   1262   1409
3371  77.400  .  .   1070   1252
3372  77.420  .  .    893   1041
3373  77.440  .  .    762    837
3374  77.460  .  .    651    684
3375  77.480  .  .    594    609
3376  77.500  .  .    673    621
3377  77.520  .  .    811    719
3378  77.540  .  .    910    893
3379  77.560  .  .   1089   1123
3380  77.580  .  .   1379   1374
3381  77.600  .  .   1554   1607
3382  77.620  .  .   1739   1792
3383  77.640  .  .   1906   1898
3384  77.660  .  .   1946   1880
3385  77.680  .  .   1651   1723
3386  77.700  .  .   1436   1472
3387  77.720  .  .   1161   1193
3388  77.740  .  .    890    948
3389  77.760  .  .    792    776
3390  77.780  .  .    755    694
3391  77.800  .  .    812    702
3392  77.820  .  .    873    783
3393  77.840  .  .    987    906
3394  77.860  .  .   1102   1033
3395  77.880  .  .   1133   1113
3396  77.900  .  .   1039   1107
3397  77.920  .  .   1000   1010
3398  77.940  .  .    833    854
3399  77.960  .  .    614    683
3400  77.980  .  .    520    529
3401  78.000  .  .    415    412
3402  78.020  .  .    364    335
3403  78.040  .  .    335    295
3404  78.060  .  .    356    279
3405  78.080  .  .    286    275
3406  78.100  .  .    299    273
3407  78.120  .  .    314    267
3408  78.140  .  .    266    251
3409  78.160  .  .    249    227
3410  78.180  .  .    199    198
3411  78.200  .  .    170    171
3412  78.220  .  .    147    147
3413  78.240  .  .    149    128
3414  78.260  .  .    114    114
3415  78.280  .  .    116    105
3416  78.300  .  .    112     99
3417  78.320  .  .     94     95
3418  78.340  .  .     89     92
3419  78.360  .  .     87     89
3420  78.380  .  .     86     87
3421  78.400  .  .     85     86
3422  78.420  .  .     77     84
3423  78.440  .  .     89     83
3424  78.460  .  .     90     82
3425  78.480  .  .     83     81
3426  78.500  .  .     79     80
3427  78.520  .  .     66     79
3428  78.540  .  .     84     79
3429  78.560  .  .     94     78
3430  78.580  .  .     90     77
3431  78.600  .  .     79     77
3432  78.620  .  .     74     76
3433  78.640  .  .     77     76
3434  78.660  .  .     78     75
3435  78.680  .  .     84     75
3436  78.700  .  .     74     74
3437  78.720  .  .     76     74
3438  78.740  .  .     80     74
3439  78.760  .  .     67     73
3440  78.780  .  .     79     73
3441  78.800  .  .     69     73
3442  78.820  .  .     79     72
3443  78.840  .  .     79     72
3444  78.860  .  .     83     72
3445  78.880  .  .     63     72
3446  78.900  .  .     55     72
3447  78.920  .  .     69     71
3448  78.940  .  .     57     71
3449  78.960  .  .     71     71
3450  78.980  .  .     76     71
3451  79.000  .  .     68     71
3452  79.020  .  .     78     70
3453  79.040  .  .     58     70
3454  79.060  .  .     68     70
3455  79.080  .  .     72     70
3456  79.100  .  .     65     70
3457  79.120  .  .     59     70
3458  79.140  .  .     83     70
3459  79.160  .  .     71     70
3460  79.180  .  .     80     70
3461  79.200  .  .     65     70
3462  79.220  .  .     74     69
3463  79.240  .  .     62     69
3464  79.260  .  .     71     69
3465  79.280  .  .     54     69
3466  79.300  .  .     76     69
3467  79.320  .  .     65     69
3468  79.340  .  .     65     69
3469  79.360  .  .     63     69
3470  79.380  .  .     62     69
3471  79.400  .  .     65     69
3472  79.420  .  .     71     69
3473  79.440  .  .     66     69
3474  79.460  .  .     62     69
3475  79.480  .  .     68     69
3476  79.500  .  .     49     68
3477  79.520  .  .     62     68
3478  79.540  .  .     55     68
3479  79.560  .  .     75     68
3480  79.580  .  .     71     68
3481  79.600  .  .     46     68
3482  79.620  .  .     61     68
3483  79.640  .  .     61     68
3484  79.660  .  .     63     68
3485  79.680  .  .     69     68
3486  79.700  .  .     59     68
3487  79.720  .  .     65     68
3488  79.740  .  .     59     67
3489  79.760  .  .     70     67
3490  79.780  .  .     67     67
3491  79.800  .  .     59     67
3492  79.820  .  .     65     67
3493  79.840  .  .     72     67
3494  79.860  .  .     57     67
3495  79.880  .  .     54     67
3496  79.900  .  .     61     67
3497  79.920  .  .     68     67
3498  79.940  .  .     59     67
3499  79.960  .  .     64     67
3500  79.980  .  .     69     67
3501  80.000  .  .     76     67
3502  80.020  .  .     63     67
3503  80.040  .  .     66     67
3504  80.060  .  .     72     67
3505  80.080  .  .     76     67
3506  80.100  .  .     78     67
3507  80.120  .  .     66     67
3508  80.140  .  .     74     67
3509  80.160  .  .     51     66
3510  80.180  .  .     66     66
3511  80.200  .  .     55     66
3512  80.220  .  .     68     67
3513  80.240  .  .     81     67
3514  80.260  .  .     68     67
3515  80.280  .  .     72     67
3516  80.300  .  .     57     67
3517  80.320  .  .     82     67
3518  80.340  .  .     70     67
3519  80.360  .  .     72     67
3520  80.380  .  .     79     67
3521  80.400  .  .     60     67
3522  80.420  .  .     62     67
3523  80.440  .  .     79     67
3524  80.460  .  .     63     67
3525  80.480  .  .     70     67
3526  80.500  .  .     67     68
3527  80.520  .  .     70     68
3528  80.540  .  .     57     68
3529  80.560  .  .     77     68
3530  80.580  .  .     74     68
3531  80.600  .  .     71     68
3532  80.620  .  .     52     69
3533  80.640  .  .     89     69
3534  80.660  .  .     60     69
3535  80.680  .  .     62     69
3536  80.700  .  .     71     70
3537  80.720  .  .     67     70
3538  80.740  .  .     79     70
3539  80.760  .  .     69     71
3540  80.780  .  .     80     71
3541  80.800  .  .     84     71
3542  80.820  .  .     65     72
3543  80.840  .  .     67     72
3544  80.860  .  .     89     73
3545  80.880  .  .     85     74
3546  80.900  .  .     72     75
3547  80.920  .  .     75     75
3548  80.940  .  .     94     76
3549  80.960  .  .     86     78
3550  80.980  .  .     90     79
3551  81.000  .  .    114     80
3552  81.020  .  .     67     82
3553  81.040  .  .    102     84
3554  81.060  .  .     99     86
3555  81.080  .  .    103     89
3556  81.100  .  .    125     92
3557  81.120  .  .    102     97
3558  81.140  .  .    106    102
3559  81.160  .  .    135    110
3560  81.180  .  .    154    123
3561  81.200  .  .    182    143
3562  81.220  .  .    203    177
3563  81.240  .  .    247    232
3564  81.260  .  .    290    316
3565  81.280  .  .    381    435
3566  81.300  .  .    489    588
3567  81.320  .  .    709    764
3568  81.340  .  .    850    934
3569  81.360  .  .   1026   1060
3570  81.380  .  .   1121   1099
3571  81.400  .  .   1068   1034
3572  81.420  .  .    917    895
3573  81.440  .  .    741    729
3574  81.460  .  .    558    575
3575  81.480  .  .    448    457
3576  81.500  .  .    386    388
3577  81.520  .  .    347    369
3578  81.540  .  .    343    393
3579  81.560  .  .    403    450
3580  81.580  .  .    451    519
3581  81.600  .  .    545    578
3582  81.620  .  .    608    602
3583  81.640  .  .    578    577
3584  81.660  .  .    491    510
3585  81.680  .  .    365    422
3586  81.700  .  .    337    334
3587  81.720  .  .    292    257
3588  81.740  .  .    199    197
3589  81.760  .  .    193    155
3590  81.780  .  .    142    127
3591  81.800  .  .    123    110
3592  81.820  .  .    135    100
3593  81.840  .  .     98     93
3594  81.860  .  .    104     88
3595  81.880  .  .     86     85
3596  81.900  .  .     94     83
3597  81.920  .  .     91     81
3598  81.940  .  .     84     79
3599  81.960  .  .     71     77
3600  81.980  .  .     71     76
3601  82.000  .  .     95     75
3602  82.020  .  .     83     74
3603  82.040  .  .     77     73
3604  82.060  .  .     94     72
3605  82.080  .  .     80     71
3606  82.100  .  .     81     71
3607  82.120  .  .     86     70
3608  82.140  .  .     65     70
3609  82.160  .  .     81     69
3610  82.180  .  .     78     69
3611  82.200  .  .     66     69
3612  82.220  .  .     61     68
3613  82.240  .  .     67     68
3614  82.260  .  .     82     68
3615  82.280  .  .     70     67
3616  82.300  .  .     87     67
3617  82.320  .  .     72     67
3618  82.340  .  .     71     67
3619  82.360  .  .     60     66
3620  82.380  .  .     58     66
3621  82.400  .  .     69     66
3622  82.420  .  .     70     66
3623  82.440  .  .     57     66
3624  82.460  .  .     59     65
3625  82.480  .  .     62     65
3626  82.500  .  .     67     65
3627  82.520  .  .     66     65
3628  82.540  .  .     55     65
3629  82.560  .  .     57     65
3630  82.580  .  .     64     65
3631  82.600  .  .     57     65
3632  82.620  .  .     70     64
3633  82.640  .  .     74     64
3634  82.660  .  .     66     64
3635  82.680  .  .     65     64
3636  82.700  .  .     57     64
3637  82.720  .  .     60     64
3638  82.740  .  .     50     64
3639  82.760  .  .     56     64
3640  82.780  .  .     57     64
3641  82.800  .  .     56     64
3642  82.820  .  .     71     64
3643  82.840  .  .     70     63
3644  82.860  .  .     48     63
3645  82.880  .  .     66     63
3646  82.900  .  .     69     63
3647  82.920  .  .     64     63
3648  82.940  .  .     58     63
3649  82.960  .  .     65     63
3650  82.980  .  .     61     63
3651  83.000  .  .     67     63
3652  83.020  .  .     62     63
3653  83.040  .  .     62     63
3654  83.060  .  .     53     63
3655  83.080  .  .     51     63
3656  83.100  .  .     73     63
3657  83.120  .  .     63     63
3658  83.140  .  .     66     63
3659  83.160  .  .     43     63
3660  83.180  .  .     44     63
3661  83.200  .  .     59     63
3662  83.220  .  .     55     62
3663  83.240  .  .     62     62
3664  83.260  .  .     79     62
3665  83.280  .  .     52     62
3666  83.300  .  .     54     62
3667  83.320  .  .     56     62
3668  83.340  .  .     47     62
3669  83.360  .  .     51     62
3670  83.380  .  .     63     62
3671  83.400  .  .     60     62
3672  83.420  .  .     70     62
3673  83.440  .  .     53     62
3674  83.460  .  .     53     62
3675  83.480  .  .     66     62
3676  83.500  .  .     63     62
3677  83.520  .  .     60     62
3678  83.540  .  .     68     62
3679  83.560  .  .     71     62
3680  83.580  .  .     60     62
3681  83.600  .  .     69     62
3682  83.620  .  .     64     62
3683  83.640  .  .     67     62
3684  83.660  .  .     69     62
3685  83.680  .  .     54     62
3686  83.700  .  .     55     62
3687  83.720  .  .     70     61
3688  83.740  .  .     69     61
3689  83.760  .  .     66     61
3690  83.780  .  .     71     61
3691  83.800  .  .     64     61
3692  83.820  .  .     84     61
3693  83.840  .  .     63     61
3694  83.860  .  .     59     61
3695  83.880  .  .     71     61
3696  83.900  .  .     65     61
3697  83.920  .  .     49     61
3698  83.940  .  .     51     61
3699  83.960  .  .     67     61
3700  83.980  .  .     65     61
3701  84.000  .  .     84     61
3702  84.020  .  .     60     61
3703  84.040  .  .     63     61
3704  84.060  .  .     69     61
3705  84.080  .  .     73     61
3706  84.100  .  .     59     61
3707  84.120  .  .     60     61
3708  84.140  .  .     52     61
3709  84.160  .  .     58     61
3710  84.180  .  .     60     61
3711  84.200  .  .     61     61
3712  84.220  .  .     67     61
3713  84.240  .  .     68     61
3714  84.260  .  .     46     61
3715  84.280  .  .     55     60
3716  84.300  .  .     57     60
3717  84.320  .  .     63     60
3718  84.340  .  .     71     60
3719  84.360  .  .     71     60
3720  84.380  .  .     61     60
3721  84.400  .  .     73     60
3722  84.420  .  .     77     60
3723  84.440  .  .     54     60
3724  84.460  .  .     76     60
3725  84.480  .  .     60     60
3726  84.500  .  .     55     60
3727  84.520  .  .     69     60
3728  84.540  .  .     59     60
3729  84.560  .  .     59     60
3730  84.580  .  .     51     60
3731  84.600  .  .     61     60
3732  84.620  .  .     61     60
3733  84.640  .  .     55     60
3734  84.660  .  .     64     60
3735  84.680  .  .     59     60
3736  84.700  .  .     56     60
3737  84.720  .  .     65     60
3738  84.740  .  .     74     60
3739  84.760  .  .     60     60
3740  84.780  .  .     71     60
3741  84.800  .  .     70     60
3742  84.820  .  .     68     60
3743  84.840  .  .     60     60
3744  84.860  .  .     78     60
3745  84.880  .  .     45     60
3746  84.900  .  .     58     60
3747  84.920  .  .     59     60
3748  84.940  .  .     73     60
3749  84.960  .  .     44     60
3750  84.980  .  .     74     60
3751  85.000  .  .     58     60
3752  85.020  .  .     62     60
3753  85.040  .  .     72     60
3754  85.060  .  .     72     60
3755  85.080  .  .     61     60
3756  85.100  .  .     66     60
3757  85.120  .  .     62     60
3758  85.140  .  .     57     60
3759  85.160  .  .     63     60
3760  85.180  .  .     70     60
3761  85.200  .  .     60     60
3762  85.220  .  .     63     60
3763  85.240  .  .     62     60
3764  85.260  .  .     82     60
3765  85.280  .  .     60     60
3766  85.300  .  .     63     60
3767  85.320  .  .     66     60
3768  85.340  .  .     67     60
3769  85.360  .  .     66     60
3770  85.380  .  .     57     60
3771  85.400  .  .     56     60
3772  85.420  .  .     72     60
3773  85.440  .  .     70     60
3774  85.460  .  .     56     60
3775  85.480  .  .     55     60
3776  85.500  .  .     58     60
3777  85.520  .  .     63     60
3778  85.540  .  .     58     60
3779  85.560  .  .     69     60
3780  85.580  .  .     53     60
3781  85.600  .  .     56     60
3782  85.620  .  .     55     60
3783  85.640  .  .     77     60
3784  85.660  .  .     71     60
3785  85.680  .  .     63     60
3786  85.700  .  .     53     60
3787  85.720  .  .     65     60
3788  85.740  .  .     62     61
3789  85.760  .  .     52     61
3790  85.780  .  .     69     61
3791  85.800  .  .     61     61
3792  85.820  .  .     59     61
3793  85.840  .  .     59     61
3794  85.860  .  .     60     61
3795  85.880  .  .     58     61
3796  85.900  .  .     66     61
3797  85.920  .  .     68     61
3798  85.940  .  .     70     61
3799  85.960  .  .     70     61
3800  85.980  .  .     52     61
3801  86.000  .  .     80     61
3802  86.020  .  .     68     61
3803  86.040  .  .     59     61
3804  86.060  .  .     70     61
3805  86.080  .  .     64     61
3806  86.100  .  .     77     61
3807  86.120  .  .     66     61
3808  86.140  .  .     63     61
3809  86.160  .  .     61     61
3810  86.180  .  .     46     61
3811  86.200  .  .     53     61
3812  86.220  .  .     70     61
3813  86.240  .  .     63     62
3814  86.260  .  .     61     62
3815  86.280  .  .     84     62
3816  86.300  .  .     53     62
3817  86.320  .  .     58     62
3818  86.340  .  .     72     62
3819  86.360  .  .     67     62
3820  86.380  .  .     83     62
3821  86.400  .  .     60     62
3822  86.420  .  .     77     62
3823  86.440  .  .     79     62
3824  86.460  .  .     67     62
3825  86.480  .  .     71     62
3826  86.500  .  .     67     62
3827  86.520  .  .     64     62
3828  86.540  .  .     60     63
3829  86.560  .  .     61     63
3830  86.580  .  .     70     63
3831  86.600  .  .     75     63
3832  86.620  .  .     79     63
3833  86.640  .  .     57     63
3834  86.660  .  .     89     63
3835  86.680  .  .     55     63
3836  86.700  .  .     71     64
3837  86.720  .  .     64     64
3838  86.740  .  .     81     64
3839  86.760  .  .     63     64
3840  86.780  .  .     77     64
3841  86.800  .  .     74     64
3842  86.820  .  .     68     65
3843  86.840  .  .     76     65
3844  86.860  .  .     79     65
3845  86.880  .  .     68     65
3846  86.900  .  .     65     66
3847  86.920  .  .     78     66
3848  86.940  .  .     87     66
3849  86.960  .  .     87     67
3850  86.980  .  .     84     67
3851  87.000  .  .     75     68
3852  87.020  .  .     81     68
3853  87.040  .  .     68     68
3854  87.060  .  .     63     69
3855  87.080  .  .     83     70
3856  87.100  .  .     91     70
3857  87.120  .  .     92     71
3858  87.140  .  .    100     72
3859  87.160  .  .     97     73
3860  87.180  .  .     92     74
3861  87.200  .  .     85     75
3862  87.220  .  .    107     77
3863  87.240  .  .     95     79
3864  87.260  .  .    115     82
3865  87.280  .  .    114     85
3866  87.300  .  .    121     90
3867  87.320  .  .    145     99
3868  87.340  .  .    151    112
3869  87.360  .  .    182    132
3870  87.380  .  .    211    162
3871  87.400  .  .    212    202
3872  87.420  .  .    264    252
3873  87.440  .  .    323    308
3874  87.460  .  .    399    363
3875  87.480  .  .    385    404
3876  87.500  .  .    485    420
3877  87.520  .  .    426    405
3878  87.540  .  .    399    366
3879  87.560  .  .    303    315
3880  87.580  .  .    286    265
3881  87.600  .  .    270    224
3882  87.620  .  .    238    195
3883  87.640  .  .    249    181
3884  87.660  .  .    236    182
3885  87.680  .  .    249    196
3886  87.700  .  .    280    221
3887  87.720  .  .    299    254
3888  87.740  .  .    335    290
3889  87.760  .  .    364    327
3890  87.780  .  .    379    361
3891  87.800  .  .    440    394
3892  87.820  .  .    444    430
3893  87.840  .  .    500    474
3894  87.860  .  .    542    522
3895  87.880  .  .    621    566
3896  87.900  .  .    604    590
3897  87.920  .  .    631    583
3898  87.940  .  .    550    544
3899  87.960  .  .    563    488
3900  87.980  .  .    476    432
3901  88.000  .  .    421    392
3902  88.020  .  .    482    381
3903  88.040  .  .    466    412
3904  88.060  .  .    520    497
3905  88.080  .  .    602    645
3906  88.100  .  .    810    861
3907  88.120  .  .    987   1137
3908  88.140  .  .   1298   1449
3909  88.160  .  .   1623   1752
3910  88.180  .  .   1801   1981
3911  88.200  .  .   1942   2068
3912  88.220  .  .   1898   1982
3913  88.240  .  .   1725   1757
3914  88.260  .  .   1437   1464
3915  88.280  .  .   1093   1171
3916  88.300  .  .    900    925
3917  88.320  .  .    729    753
3918  88.340  .  .    617    666
3919  88.360  .  .    681    661
3920  88.380  .  .    666    726
3921  88.400  .  .    786    841
3922  88.420  .  .    865    975
3923  88.440  .  .   1032   1097
3924  88.460  .  .   1088   1169
3925  88.480  .  .   1174   1164
3926  88.500  .  .   1019   1077
3927  88.520  .  .    935    932
3928  88.540  .  .    770    764
3929  88.560  .  .    597    602
3930  88.580  .  .    506    467
3931  88.600  .  .    413    365
3932  88.620  .  .    320    298
3933  88.640  .  .    316    259
3934  88.660  .  .    265    241
3935  88.680  .  .    278    234
3936  88.700  .  .    255    229
3937  88.720  .  .    251    221
3938  88.740  .  .    228    206
3939  88.760  .  .    242    186
3940  88.780  .  .    207    165
3941  88.800  .  .    179    144
3942  88.820  .  .    141    127
3943  88.840  .  .    135    113
3944  88.860  .  .     97    102
3945  88.880  .  .    112     95
3946  88.900  .  .    112     89
3947  88.920  .  .    101     85
3948  88.940  .  .     98     83
3949  88.960  .  .     99     80
3950  88.980  .  .     88     79
3951  89.000  .  .    106     77
3952  89.020  .  .     92     76
3953  89.040  .  .     85     74
3954  89.060  .  .     91     73
3955  89.080  .  .     97     72
3956  89.100  .  .     89     71
3957  89.120  .  .     86     71
3958  89.140  .  .     60     70
3959  89.160  .  .     66     69
3960  89.180  .  .     63     69
3961  89.200  .  .     67     68
3962  89.220  .  .     69     68
3963  89.240  .  .     76     67
3964  89.260  .  .     65     67
3965  89.280  .  .     66     66
3966  89.300  .  .     88     66
3967  89.320  .  .     69     66
3968  89.340  .  .     77     65
3969  89.360  .  .     75     65
3970  89.380  .  .     72     65
3971  89.400  .  .     67     64
3972  89.420  .  .     65     64
3973  89.440  .  .     69     64
3974  89.460  .  .     74     64
3975  89.480  .  .     67     63
3976  89.500  .  .     55     63
3977  89.520  .  .     62     63
3978  89.540  .  .     59     63
3979  89.560  .  .     60     63
3980  89.580  .  .     67     63
3981  89.600  .  .     70     62
3982  89.620  .  .     55     62
3983  89.640  .  .     66     62
3984  89.660  .  .     69     62
3985  89.680  .  .     61     62
3986  89.700  .  .     70     62
3987  89.720  .  .     75     62
3988  89.740  .  .     76     61
3989  89.760  .  .     62     61
3990  89.780  .  .     78     61
3991  89.800  .  .     64     61
3992  89.820  .  .     59     61
3993  89.840  .  .     70     61
3994  89.860  .  .     78     61
3995  89.880  .  .     83     61
3996  89.900  .  .     75     61
3997  89.920  .  .     53     61
3998  89.940  .  .     70     61
3999  89.960  .  .     59     60
4000  89.980  .  .     70     60
4001  90.000  .  .     65     60
4002  90.020  .  .     73     60
4003  90.040  .  .     70     60
4004  90.060  .  .     64     60
4005  90.080  .  .     62     60
4006  90.100  .  .     69     60
4007  90.120  .  .     58     60
4008  90.140  .  .     55     60
4009  90.160  .  .     66     60
4010  90.180  .  .     77     60
4011  90.200  .  .     66     60
4012  90.220  .  .     67     60
4013  90.240  .  .     58     60
4014  90.260  .  .     62     60
4015  90.280  .  .     58     60
4016  90.300  .  .     72     60
4017  90.320  .  .     55     60
4018  90.340  .  .     62     60
4019  90.360  .  .     68     60
4020  90.380  .  .     49     60
4021  90.400  .  .     75     60
4022  90.420  .  .     56     60
4023  90.440  .  .     66     60
4024  90.460  .  .     79     60
4025  90.480  .  .     60     60
4026  90.500  .  .     77     60
4027  90.520  .  .     60     60
4028  90.540  .  .     77     60
4029  90.560  .  .     70     60
4030  90.580  .  .     79     61
4031  90.600  .  .     73     61
4032  90.620  .  .     72     61
4033  90.640  .  .     71     61
4034  90.660  .  .     49     61
4035  90.680  .  .     58     61
4036  90.700  .  .     82     61
4037  90.720  .  .     88     62
4038  90.740  .  .     72     62
4039  90.760  .  .     69     63
4040  90.780  .  .     77     65
4041  90.800  .  .     92     67
4042  90.820  .  .     58     70
4043  90.840  .  .     83     75
4044  90.860  .  .     81     82
4045  90.880  .  .     97     92
4046  90.900  .  .    112    104
4047  90.920  .  .    130    117
4048  90.940  .  .    154    130
4049  90.960  .  .    200    141
4050  90.980  .  .    185    146
4051  91.000  .  .    168    144
4052  91.020  .  .    184    136
4053  91.040  .  .    154    124
4054  91.060  .  .    128    111
4055  91.080  .  .    105    100
4056  91.100  .  .    116     91
4057  91.120  .  .    109     85
4058  91.140  .  .     79     83
4059  91.160  .  .     93     84
4060  91.180  .  .    108     87
4061  91.200  .  .    104     92
4062  91.220  .  .    129     98
4063  91.240  .  .    135    104
4064  91.260  .  .    142    108
4065  91.280  .  .    121    109
4066  91.300  .  .    151    107
4067  91.320  .  .    126    102
4068  91.340  .  .    108     96
4069  91.360  .  .    119     91
4070  91.380  .  .    115     86
4071  91.400  .  .     98     83
4072  91.420  .  .    122     81
4073  91.440  .  .    114     81
4074  91.460  .  .    125     82
4075  91.480  .  .     87     86
4076  91.500  .  .     97     92
4077  91.520  .  .    121    101
4078  91.540  .  .    134    115
4079  91.560  .  .    140    136
4080  91.580  .  .    153    163
4081  91.600  .  .    213    197
4082  91.620  .  .    216    237
4083  91.640  .  .    255    279
4084  91.660  .  .    301    318
4085  91.680  .  .    314    349
4086  91.700  .  .    353    370
4087  91.720  .  .    366    384
4088  91.740  .  .    355    404
4089  91.760  .  .    399    436
4090  91.780  .  .    425    487
4091  91.800  .  .    473    553
4092  91.820  .  .    586    624
4093  91.840  .  .    701    684
4094  91.860  .  .    731    713
4095  91.880  .  .    727    700
4096  91.900  .  .    652    651
4097  91.920  .  .    612    582
4098  91.940  .  .    513    509
4099  91.960  .  .    423    441
4100  91.980  .  .    354    383
4101  92.000  .  .    316    337
4102  92.020  .  .    298    305
4103  92.040  .  .    261    290
4104  92.060  .  .    277    291
4105  92.080  .  .    296    306
4106  92.100  .  .    314    331
4107  92.120  .  .    340    359
4108  92.140  .  .    367    378
4109  92.160  .  .    377    378
4110  92.180  .  .    391    357
4111  92.200  .  .    351    318
4112  92.220  .  .    314    272
4113  92.240  .  .    233    224
4114  92.260  .  .    192    182
4115  92.280  .  .    150    148
4116  92.300  .  .    132    122
4117  92.320  .  .    108    104
4118  92.340  .  .    115     92
4119  92.360  .  .     95     84
4120  92.380  .  .     74     78
4121  92.400  .  .     82     75
4122  92.420  .  .     81     72
4123  92.440  .  .     84     70
4124  92.460  .  .     63     69
4125  92.480  .  .     78     68
4126  92.500  .  .     76     67
4127  92.520  .  .     91     66
4128  92.540  .  .     61     65
4129  92.560  .  .     75     64
4130  92.580  .  .     87     63
4131  92.600  .  .     67     63
4132  92.620  .  .     69     62
4133  92.640  .  .     65     62
4134  92.660  .  .     62     61
4135  92.680  .  .     57     61
4136  92.700  .  .     67     61
4137  92.720  .  .     65     60
4138  92.740  .  .     56     60
4139  92.760  .  .     80     60
4140  92.780  .  .     61     60
4141  92.800  .  .     72     59
4142  92.820  .  .     59     59
4143  92.840  .  .     79     59
4144  92.860  .  .     65     59
4145  92.880  .  .     51     59
4146  92.900  .  .     55     58
4147  92.920  .  .     62     58
4148  92.940  .  .     49     58
4149  92.960  .  .     72     58
4150  92.980  .  .     64     58
4151  93.000  .  .     51     58
4152  93.020  .  .     56     58
4153  93.040  .  .     63     57
4154  93.060  .  .     62     57
4155  93.080  .  .     68     57
4156  93.100  .  .     64     57
4157  93.120  .  .     72     57
4158  93.140  .  .     67     57
4159  93.160  .  .     64     57
4160  93.180  .  .     55     57
4161  93.200  .  .     65     57
4162  93.220  .  .     54     57
4163  93.240  .  .     51     57
4164  93.260  .  .     67     57
4165  93.280  .  .     53     57
4166  93.300  .  .     60     56
4167  93.320  .  .     67     56
4168  93.340  .  .     55     56
4169  93.360  .  .     57     56
4170  93.380  .  .     67     56
4171  93.400  .  .     52     56
4172  93.420  .  .     67     56
4173  93.440  .  .     65     56
4174  93.460  .  .     59     56
4175  93.480  .  .     59     56
4176  93.500  .  .     55     56
4177  93.520  .  .     61     56
4178  93.540  .  .     65     56
4179  93.560  .  .     70     56
4180  93.580  .  .     57     56
4181  93.600  .  .     71     56
4182  93.620  .  .     61     56
4183  93.640  .  .     50     56
4184  93.660  .  .     67     56
4185  93.680  .  .     61     56
4186  93.700  .  .     61     56
4187  93.720  .  .     64     56
4188  93.740  .  .     54     56
4189  93.760  .  .     70     56
4190  93.780  .  .     51     56
4191  93.800  .  .     46     56
4192  93.820  .  .     53     56
4193  93.840  .  .     68     55
4194  93.860  .  .     63     55
4195  93.880  .  .     63     55
4196  93.900  .  .     60     55
4197  93.920  .  .     74     55
4198  93.940  .  .     63     55
4199  93.960  .  .     74     55
4200  93.980  .  .     67     55
4201  94.000  .  .     59     55
4202  94.020  .  .     57     55
4203  94.040  .  .     54     55
4204  94.060  .  .     74     55
4205  94.080  .  .     69     55
4206  94.100  .  .     66     55
4207  94.120  .  .     91     55
4208  94.140  .  .     74     55
4209  94.160  .  .     79     55
4210  94.180  .  .     81     55
4211  94.200  .  .     71     55
4212  94.220  .  .     76     55
4213  94.240  .  .     64     55
4214  94.260  .  .     69     55
4215  94.280  .  .     65     55
4216  94.300  .  .     70     55
4217  94.320  .  .     63     55
4218  94.340  .  .     76     55
4219  94.360  .  .     65     55
4220  94.380  .  .     68     55
4221  94.400  .  .     69     55
4222  94.420  .  .     64     55
4223  94.440  .  .     67     55
4224  94.460  .  .     57     55
4225  94.480  .  .     60     55
4226  94.500  .  .     62     55
4227  94.520  .  .     70     55
4228  94.540  .  .     60     55
4229  94.560  .  .     62     56
4230  94.580  .  .     55     56
4231  94.600  .  .     69     56
4232  94.620  .  .     60     56
4233  94.640  .  .     86     56
4234  94.660  .  .     81     57
4235  94.680  .  .     78     58
4236  94.700  .  .     70     59
4237  94.720  .  .     77     60
4238  94.740  .  .     80     63
4239  94.760  .  .     75     66
4240  94.780  .  .     50     71
4241  94.800  .  .     74     77
4242  94.820  .  .     90     83
4243  94.840  .  .     78     88
4244  94.860  .  .    103     93
4245  94.880  .  .     99     95
4246  94.900  .  .     89     94
4247  94.920  .  .     87     90
4248  94.940  .  .     86     85
4249  94.960  .  .     99     79
4250  94.980  .  .     79     74
4251  95.000  .  .     91     69
4252  95.020  .  .     81     66
4253  95.040  .  .     84     64
4254  95.060  .  .     80     64
4255  95.080  .  .     75     64
4256  95.100  .  .     68     66
4257  95.120  .  .     69     68
4258  95.140  .  .     81     71
4259  95.160  .  .     75     73
4260  95.180  .  .     59     75
4261  95.200  .  .     74     75
4262  95.220  .  .     81     74
4263  95.240  .  .     88     72
4264  95.260  .  .     75     69
4265  95.280  .  .     65     66
4266  95.300  .  .     68     63
4267  95.320  .  .     72     61
4268  95.340  .  .     84     59
4269  95.360  .  .     59     58
4270  95.380  .  .     53     57
4271  95.400  .  .     62     56
4272  95.420  .  .     51     56
4273  95.440  .  .     60     56
4274  95.460  .  .     66     55
4275  95.480  .  .     62     55
4276  95.500  .  .     66     55
4277  95.520  .  .     63     55
4278  95.540  .  .     53     55
4279  95.560  .  .     55     55
4280  95.580  .  .     58     55
4281  95.600  .  .     51     55
4282  95.620  .  .     56     55
4283  95.640  .  .     63     55
4284  95.660  .  .     63     55
4285  95.680  .  .     62     55
4286  95.700  .  .     56     55
4287  95.720  .  .     65     55
4288  95.740  .  .     60     55
4289  95.760  .  .     54     55
4290  95.780  .  .     57     55
4291  95.800  .  .     55     55
4292  95.820  .  .     58     55
4293  95.840  .  .     51     55
4294  95.860  .  .     46     55
4295  95.880  .  .     77     55
4296  95.900  .  .     78     55
4297  95.920  .  .     52     55
4298  95.940  .  .     47     55
4299  95.960  .  .     66     55
4300  95.980  .  .     61     55
4301  96.000  .  .     61     55
4302  96.020  .  .     67     55
4303  96.040  .  .     50     55
4304  96.060  .  .     58     55
4305  96.080  .  .     79     55
4306  96.100  .  .     56     55
4307  96.120  .  .     53     55
4308  96.140  .  .     67     55
4309  96.160  .  .     65     55
4310  96.180  .  .     54     55
4311  96.200  .  .     50     55
4312  96.220  .  .     56     55
4313  96.240  .  .     52     55
4314  96.260  .  .     61     55
4315  96.280  .  .     59     55
4316  96.300  .  .     58     55
4317  96.320  .  .     64     55
4318  96.340  .  .     58     55
4319  96.360  .  .     51     55
4320  96.380  .  .     52     55
4321  96.400  .  .     46     55
4322  96.420  .  .     57     55
4323  96.440  .  .     48     55
4324  96.460  .  .     62     55
4325  96.480  .  .     47     55
4326  96.500  .  .     55     55
4327  96.520  .  .     61     55
4328  96.540  .  .     59     55
4329  96.560  .  .     65     55
4330  96.580  .  .     64     55
4331  96.600  .  .     48     55
4332  96.620  .  .     66     55
4333  96.640  .  .     66     56
4334  96.660  .  .     51     56
4335  96.680  .  .     65     56
4336  96.700  .  .     69     56
4337  96.720  .  .     46     56
4338  96.740  .  .     61     56
4339  96.760  .  .     50     56
4340  96.780  .  .     68     56
4341  96.800  .  .     56     56
4342  96.820  .  .     60     56
4343  96.840  .  .     59     56
4344  96.860  .  .     61     56
4345  96.880  .  .     57     56
4346  96.900  .  .     64     56
4347  96.920  .  .     58     56
4348  96.940  .  .     58     56
4349  96.960  .  .     49     56
4350  96.980  .  .     54     56
4351  97.000  .  .     52     57
4352  97.020  .  .     47     57
4353  97.040  .  .     62     57
4354  97.060  .  .     61     57
4355  97.080  .  .     61     57
4356  97.100  .  .     80     57
4357  97.120  .  .     53     57
4358  97.140  .  .     60     57
4359  97.160  .  .     74     58
4360  97.180  .  .     77     58
4361  97.200  .  .     49     58
4362  97.220  .  .     57     58
4363  97.240  .  .     69     58
4364  97.260  .  .     63     59
4365  97.280  .  .     58     59
4366  97.300  .  .     53     59
4367  97.320  .  .     55     59
4368  97.340  .  .     65     60
4369  97.360  .  .     60     60
4370  97.380  .  .     71     60
4371  97.400  .  .     69     61
4372  97.420  .  .     53     61
4373  97.440  .  .     83     62
4374  97.460  .  .     60     62
4375  97.480  .  .     70     63
4376  97.500  .  .     68     63
4377  97.520  .  .     82     64
4378  97.540  .  .     68     65
4379  97.560  .  .     87     66
4380  97.580  .  .     73     67
4381  97.600  .  .     78     68
4382  97.620  .  .     76     70
4383  97.640  .  .     88     71
4384  97.660  .  .     82     73
4385  97.680  .  .     92     76
4386  97.700  .  .     94     79
4387  97.720  .  .     95     84
4388  97.740  .  .    119     90
4389  97.760  .  .    127    100
4390  97.780  .  .    142    115
4391  97.800  .  .    142    137
4392  97.820  .  .    184    170
4393  97.840  .  .    227    217
4394  97.860  .  .    287    279
4395  97.880  .  .    355    355
4396  97.900  .  .    475    443
4397  97.920  .  .    530    535
4398  97.940  .  .    664    618
4399  97.960  .  .    813    676
4400  97.980  .  .    767    695
4401  98.000  .  .    770    669
4402  98.020  .  .    669    607
4403  98.040  .  .    572    523
4404  98.060  .  .    433    435
4405  98.080  .  .    375    353
4406  98.100  .  .    317    286
4407  98.120  .  .    278    237
4408  98.140  .  .    266    208
4409  98.160  .  .    244    198
4410  98.180  .  .    245    205
4411  98.200  .  .    261    226
4412  98.220  .  .    289    259
4413  98.240  .  .    319    298
4414  98.260  .  .    393    338
4415  98.280  .  .    380    370
4416  98.300  .  .    451    385
4417  98.320  .  .    418    379
4418  98.340  .  .    405    352
4419  98.360  .  .    362    312
4420  98.380  .  .    305    267
4421  98.400  .  .    268    221
4422  98.420  .  .    198    181
4423  98.440  .  .    185    149
4424  98.460  .  .    132    123
4425  98.480  .  .    136    105
4426  98.500  .  .    152     92
4427  98.520  .  .    104     84
4428  98.540  .  .     95     78
4429  98.560  .  .    101     74
4430  98.580  .  .     95     72
4431  98.600  .  .    112     70
4432  98.620  .  .     90     69
4433  98.640  .  .     98     68
4434  98.660  .  .     91     67
4435  98.680  .  .     79     66
4436  98.700  .  .     91     66
4437  98.720  .  .     81     66
4438  98.740  .  .     75     66
4439  98.760  .  .     70     67
4440  98.780  .  .     83     69
4441  98.800  .  .     72     72
4442  98.820  .  .     81     75
4443  98.840  .  .     97     79
4444  98.860  .  .     94     83
4445  98.880  .  .     86     87
4446  98.900  .  .    103     91
4447  98.920  .  .    121     92
4448  98.940  .  .     96     91
4449  98.960  .  .     88     88
4450  98.980  .  .     94     84
4451  99.000  .  .     93     80
4452  99.020  .  .     76     75
4453  99.040  .  .     85     71
4454  99.060  .  .     80     68
4455  99.080  .  .     77     66
4456  99.100  .  .     82     65
4457  99.120  .  .     71     65
4458  99.140  .  .     71     65
4459  99.160  .  .     64     67
4460  99.180  .  .     77     69
4461  99.200  .  .     82     71
4462  99.220  .  .     82     72
4463  99.240  .  .     77     74
4464  99.260  .  .     70     74
4465  99.280  .  .     78     73
4466  99.300  .  .     78     71
4467  99.320  .  .     69     69
4468  99.340  .  .     81     67
4469  99.360  .  .     65     64
4470  99.380  .  .     72     62
4471  99.400  .  .     58     61
4472  99.420  .  .     64     60
4473  99.440  .  .     77     59
4474  99.460  .  .     69     58
4475  99.480  .  .     67     58
4476  99.500  .  .     57     58
4477  99.520  .  .     50     57
4478  99.540  .  .     67     57
4479  99.560  .  .     60     57
4480  99.580  .  .     76     57
4481  99.600  .  .     66     57
4482  99.620  .  .     67     57
4483  99.640  .  .     59     57
4484  99.660  .  .     47     57
4485  99.680  .  .     64     57
4486  99.700  .  .     69     57
4487  99.720  .  .     57     57
4488  99.740  .  .     52     57
4489  99.760  .  .     53     57
4490  99.780  .  .     63     57
4491  99.800  .  .     64     57
4492  99.820  .  .     63     57
4493  99.840  .  .     60     57
4494  99.860  .  .     60     57
4495  99.880  .  .     73     57
4496  99.900  .  .     62     57
4497  99.920  .  .     65     57
4498  99.940  .  .     59     57
4499  99.960  .  .     74     57
4500  99.980  .  .     60     57
4501 100.000  .  .     68     57
4502 100.020  .  .     55     57
4503 100.040  .  .     51     57
4504 100.060  .  .     52     57
4505 100.080  .  .     53     57
4506 100.100  .  .     73     57
4507 100.120  .  .     58     57
4508 100.140  .  .     63     57
4509 100.160  .  .     68     57
4510 100.180  .  .     66     57
4511 100.200  .  .     67     57
4512 100.220  .  .     62     57
4513 100.240  .  .     58     57
4514 100.260  .  .     65     57
4515 100.280  .  .     67     57
4516 100.300  .  .     67     57
4517 100.320  .  .     61     57
4518 100.340  .  .     53     57
4519 100.360  .  .     59     57
4520 100.380  .  .     47     57
4521 100.400  .  .     54     57
4522 100.420  .  .     62     57
4523 100.440  .  .     60     57
4524 100.460  .  .     50     57
4525 100.480  .  .     51     58
4526 100.500  .  .     59     58
4527 100.520  .  .     73     58
4528 100.540  .  .     59     58
4529 100.560  .  .     49     58
4530 100.580  .  .     68     58
4531 100.600  .  .     53     58
4532 100.620  .  .     60     58
4533 100.640  .  .     68     58
4534 100.660  .  .     52     58
4535 100.680  .  .     60     58
4536 100.700  .  .     66     58
4537 100.720  .  .     77     59
4538 100.740  .  .     60     59
4539 100.760  .  .     59     59
4540 100.780  .  .     49     59
4541 100.800  .  .     58     59
4542 100.820  .  .     63     59
4543 100.840  .  .     66     59
4544 100.860  .  .     55     60
4545 100.880  .  .     49     60
4546 100.900  .  .     51     60
4547 100.920  .  .     54     60
4548 100.940  .  .     77     60
4549 100.960  .  .     52     61
4550 100.980  .  .     79     61
4551 101.000  .  .     68     61
4552 101.020  .  .     73     62
4553 101.040  .  .     65     62
4554 101.060  .  .     65     63
4555 101.080  .  .     67     63
4556 101.100  .  .     81     64
4557 101.120  .  .     73     64
4558 101.140  .  .     58     65
4559 101.160  .  .     75     66
4560 101.180  .  .     79     67
4561 101.200  .  .     72     68
4562 101.220  .  .     85     70
4563 101.240  .  .     71     72
4564 101.260  .  .     90     75
4565 101.280  .  .     83     79
4566 101.300  .  .     79     86
4567 101.320  .  .    117     95
4568 101.340  .  .    103    109
4569 101.360  .  .    108    129
4570 101.380  .  .    140    155
4571 101.400  .  .    156    187
4572 101.420  .  .    170    226
4573 101.440  .  .    234    269
4574 101.460  .  .    284    311
4575 101.480  .  .    333    347
4576 101.500  .  .    355    370
4577 101.520  .  .    390    375
4578 101.540  .  .    325    360
4579 101.560  .  .    308    329
4580 101.580  .  .    254    290
4581 101.600  .  .    201    249
4582 101.620  .  .    230    211
4583 101.640  .  .    199    179
4584 101.660  .  .    156    155
4585 101.680  .  .    164    140
4586 101.700  .  .    158    133
4587 101.720  .  .    129    134
4588 101.740  .  .    153    142
4589 101.760  .  .    163    155
4590 101.780  .  .    174    173
4591 101.800  .  .    191    193
4592 101.820  .  .    226    211
4593 101.840  .  .    246    226
4594 101.860  .  .    223    233
4595 101.880  .  .    204    230
4596 101.900  .  .    231    218
4597 101.920  .  .    206    201
4598 101.940  .  .    203    182
4599 101.960  .  .    160    163
4600 101.980  .  .    169    148
4601 102.000  .  .    162    137
4602 102.020  .  .    152    131
4603 102.040  .  .    168    131
4604 102.060  .  .    146    139
4605 102.080  .  .    185    153
4606 102.100  .  .    206    174
4607 102.120  .  .    189    203
4608 102.140  .  .    220    239
4609 102.160  .  .    262    279
4610 102.180  .  .    302    322
4611 102.200  .  .    393    363
4612 102.220  .  .    394    400
4613 102.240  .  .    407    431
4614 102.260  .  .    427    458
4615 102.280  .  .    424    486
4616 102.300  .  .    445    520
4617 102.320  .  .    473    565
4618 102.340  .  .    515    618
4619 102.360  .  .    609    674
4620 102.380  .  .    701    723
4621 102.400  .  .    726    750
4622 102.420  .  .    805    747
4623 102.440  .  .    729    711
4624 102.460  .  .    655    653
4625 102.480  .  .    592    584
4626 102.500  .  .    482    515
4627 102.520  .  .    429    455
4628 102.540  .  .    395    407
4629 102.560  .  .    339    370
4630 102.580  .  .    329    345
4631 102.600  .  .    306    328
4632 102.620  .  .    299    319
4633 102.640  .  .    311    318
4634 102.660  .  .    299    326
4635 102.680  .  .    314    342
4636 102.700  .  .    344    363
4637 102.720  .  .    355    386
4638 102.740  .  .    415    403
4639 102.760  .  .    405    408
4640 102.780  .  .    426    397
4641 102.800  .  .    400    369
4642 102.820  .  .    328    330
4643 102.840  .  .    285    286
4644 102.860  .  .    262    242
4645 102.880  .  .    227    202
4646 102.900  .  .    171    168
4647 102.920  .  .    146    141
4648 102.940  .  .    128    120
4649 102.960  .  .    121    105
4650 102.980  .  .    121     95
4651 103.000  .  .     85     87
4652 103.020  .  .    110     82
4653 103.040  .  .     88     79
4654 103.060  .  .     85     76
4655 103.080  .  .     86     74
4656 103.100  .  .     94     73
4657 103.120  .  .     93     71
4658 103.140  .  .     75     70
4659 103.160  .  .     83     69
4660 103.180  .  .     73     68
4661 103.200  .  .     72     67
4662 103.220  .  .     62     67
4663 103.240  .  .     82     66
4664 103.260  .  .     65     66
4665 103.280  .  .     71     65
4666 103.300  .  .     68     65
4667 103.320  .  .     68     64
4668 103.340  .  .     65     64
4669 103.360  .  .     64     64
4670 103.380  .  .     73     63
4671 103.400  .  .     52     63
4672 103.420  .  .     75     63
4673 103.440  .  .     76     62
4674 103.460  .  .     75     62
4675 103.480  .  .     83     62
4676 103.500  .  .     61     62
4677 103.520  .  .     68     61
4678 103.540  .  .     56     61
4679 103.560  .  .     68     61
4680 103.580  .  .     62     61
4681 103.600  .  .     69     61
4682 103.620  .  .     60     61
4683 103.640  .  .     54     61
4684 103.660  .  .     63     60
4685 103.680  .  .     55     60
4686 103.700  .  .     63     60
4687 103.720  .  .     72     60
4688 103.740  .  .     68     60
4689 103.760  .  .     77     60
4690 103.780  .  .     64     60
4691 103.800  .  .     67     60
4692 103.820  .  .     64     60
4693 103.840  .  .     55     60
4694 103.860  .  .     55     60
4695 103.880  .  .     63     60
4696 103.900  .  .     70     60
4697 103.920  .  .     76     60
4698 103.940  .  .     61     59
4699 103.960  .  .     61     59
4700 103.980  .  .     48     59
4701 104.000  .  .     66     59
4702 104.020  .  .     73     59
4703 104.040  .  .     72     59
4704 104.060  .  .     58     59
4705 104.080  .  .     60     59
4706 104.100  .  .     82     59
4707 104.120  .  .     62     59
4708 104.140  .  .     63     59
4709 104.160  .  .     58     59
4710 104.180  .  .     62     59
4711 104.200  .  .     63     59
4712 104.220  .  .     57     59
4713 104.240  .  .     64     59
4714 104.260  .  .     78     59
4715 104.280  .  .     53     59
4716 104.300  .  .     60     59
4717 104.320  .  .     49     59
4718 104.340  .  .     56     59
4719 104.360  .  .     55     59
4720 104.380  .  .     62     59
4721 104.400  .  .     63     59
4722 104.420  .  .     63     59
4723 104.440  .  .     61     59
4724 104.460  .  .     63     59
4725 104.480  .  .     54     59
4726 104.500  .  .     61     59
4727 104.520  .  .     62     59
4728 104.540  .  .     66     59
4729 104.560  .  .     78     59
4730 104.580  .  .     59     59
4731 104.600  .  .     62     59
4732 104.620  .  .     52     59
4733 104.640  .  .     63     59
4734 104.660  .  .     42     59
4735 104.680  .  .     68     59
4736 104.700  .  .     67     60
4737 104.720  .  .     65     60
4738 104.740  .  .     68     60
4739 104.760  .  .     59     60
4740 104.780  .  .     68     60
4741 104.800  .  .     63     60
4742 104.820  .  .     55     60
4743 104.840  .  .     72     60
4744 104.860  .  .     53     60
4745 104.880  .  .     53     60
4746 104.900  .  .     57     60
4747 104.920  .  .     63     60
4748 104.940  .  .     55     60
4749 104.960  .  .     51     60
4750 104.980  .  .     59     60
4751 105.000  .  .     50     61
4752 105.020  .  .     65     61
4753 105.040  .  .     55     61
4754 105.060  .  .     69     61
4755 105.080  .  .     59     61
4756 105.100  .  .     54     61
4757 105.120  .  .     58     62
4758 105.140  .  .     64     62
4759 105.160  .  .     57     62
4760 105.180  .  .     75     62
4761 105.200  .  .     72     63
4762 105.220  .  .     75     63
4763 105.240  .  .     61     63
4764 105.260  .  .     71     64
4765 105.280  .  .     81     65
4766 105.300  .  .     86     66
4767 105.320  .  .     79     67
4768 105.340  .  .     86     69
4769 105.360  .  .     77     72
4770 105.380  .  .     93     75
4771 105.400  .  .     92     79
4772 105.420  .  .    103     84
4773 105.440  .  .     97     89
4774 105.460  .  .    109     94
4775 105.480  .  .    129     99
4776 105.500  .  .    105    103
4777 105.520  .  .    107    104
4778 105.540  .  .    114    104
4779 105.560  .  .    114    101
4780 105.580  .  .    112     98
4781 105.600  .  .    115     94
4782 105.620  .  .     92     90
4783 105.640  .  .    102     86
4784 105.660  .  .    105     84
4785 105.680  .  .    101     83
4786 105.700  .  .    113     82
4787 105.720  .  .    110     83
4788 105.740  .  .    106     86
4789 105.760  .  .    123     89
4790 105.780  .  .    131     94
4791 105.800  .  .    134    101
4792 105.820  .  .    133    111
4793 105.840  .  .    149    124
4794 105.860  .  .    179    141
4795 105.880  .  .    183    165
4796 105.900  .  .    221    195
4797 105.920  .  .    210    235
4798 105.940  .  .    235    283
4799 105.960  .  .    265    341
4800 105.980  .  .    328    405
4801 106.000  .  .    442    471
4802 106.020  .  .    528    532
4803 106.040  .  .    552    579
4804 106.060  .  .    625    602
4805 106.080  .  .    633    597
4806 106.100  .  .    569    563
4807 106.120  .  .    505    509
4808 106.140  .  .    420    445
4809 106.160  .  .    369    378
4810 106.180  .  .    299    316
4811 106.200  .  .    264    263
4812 106.220  .  .    200    222
4813 106.240  .  .    190    194
4814 106.260  .  .    187    178
4815 106.280  .  .    173    173
4816 106.300  .  .    153    180
4817 106.320  .  .    179    196
4818 106.340  .  .    188    219
4819 106.360  .  .    241    247
4820 106.380  .  .    267    278
4821 106.400  .  .    243    306
4822 106.420  .  .    338    328
4823 106.440  .  .    351    338
4824 106.460  .  .    357    334
4825 106.480  .  .    304    316
4826 106.500  .  .    300    288
4827 106.520  .  .    243    255
4828 106.540  .  .    209    220
4829 106.560  .  .    187    188
4830 106.580  .  .    132    159
4831 106.600  .  .    140    136
4832 106.620  .  .    112    117
4833 106.640  .  .    120    103
4834 106.660  .  .     90     93
4835 106.680  .  .     90     86
4836 106.700  .  .     82     81
4837 106.720  .  .     94     77
4838 106.740  .  .     87     75
4839 106.760  .  .     76     73
4840 106.780  .  .     85     71
4841 106.800  .  .     80     70
4842 106.820  .  .     72     69
4843 106.840  .  .     85     69
4844 106.860  .  .     71     68
4845 106.880  .  .     66     67
4846 106.900  .  .     54     67
4847 106.920  .  .     90     66
4848 106.940  .  .     77     66
4849 106.960  .  .     61     66
4850 106.980  .  .     59     65
4851 107.000  .  .     67     65
4852 107.020  .  .     63     65
4853 107.040  .  .     60     64
4854 107.060  .  .     64     64
4855 107.080  .  .     52     64
4856 107.100  .  .     56     64
4857 107.120  .  .     80     64
4858 107.140  .  .     48     63
4859 107.160  .  .     59     63
4860 107.180  .  .     61     63
4861 107.200  .  .     68     63
4862 107.220  .  .     56     63
4863 107.240  .  .     72     63
4864 107.260  .  .     61     63
4865 107.280  .  .     57     63
4866 107.300  .  .     58     63
4867 107.320  .  .     75     62
4868 107.340  .  .     79     62
4869 107.360  .  .     82     62
4870 107.380  .  .     68     62
4871 107.400  .  .     56     62
4872 107.420  .  .     60     62
4873 107.440  .  .     58     62
4874 107.460  .  .     50     62
4875 107.480  .  .     66     62
4876 107.500  .  .     70     62
4877 107.520  .  .     55     62
4878 107.540  .  .     75     62
4879 107.560  .  .     60     62
4880 107.580  .  .     71     62
4881 107.600  .  .     65     62
4882 107.620  .  .     59     62
4883 107.640  .  .     57     62
4884 107.660  .  .     67     62
4885 107.680  .  .     61     62
4886 107.700  .  .     70     62
4887 107.720  .  .     54     62
4888 107.740  .  .     50     62
4889 107.760  .  .     65     62
4890 107.780  .  .     55     62
4891 107.800  .  .     66     62
4892 107.820  .  .     66     62
4893 107.840  .  .     55     62
4894 107.860  .  .     75     62
4895 107.880  .  .     53     62
4896 107.900  .  .     56     62
4897 107.920  .  .     54     62
4898 107.940  .  .     61     62
4899 107.960  .  .     62     62
4900 107.980  .  .     61     62
4901 108.000  .  .     64     62
4902 108.020  .  .     54     62
4903 108.040  .  .     49     63
4904 108.060  .  .     66     63
4905 108.080  .  .     61     63
4906 108.100  .  .     79     63
4907 108.120  .  .     60     63
4908 108.140  .  .     70     63
4909 108.160  .  .     62     63
4910 108.180  .  .     54     63
4911 108.200  .  .     75     63
4912 108.220  .  .     63     63
4913 108.240  .  .     68     63
4914 108.260  .  .     76     63
4915 108.280  .  .     62     64
4916 108.300  .  .     75     64
4917 108.320  .  .     63     64
4918 108.340  .  .     66     64
4919 108.360  .  .     57     64
4920 108.380  .  .     74     64
4921 108.400  .  .     59     65
4922 108.420  .  .     82     65
4923 108.440  .  .     70     65
4924 108.460  .  .     49     65
4925 108.480  .  .     92     65
4926 108.500  .  .     71     66
4927 108.520  .  .     67     66
4928 108.540  .  .     69     66
4929 108.560  .  .     62     67
4930 108.580  .  .     70     67
4931 108.600  .  .     74     67
4932 108.620  .  .     63     68
4933 108.640  .  .     74     68
4934 108.660  .  .     69     69
4935 108.680  .  .     75     69
4936 108.700  .  .     65     70
4937 108.720  .  .     75     71
4938 108.740  .  .     63     72
4939 108.760  .  .     99     72
4940 108.780  .  .     79     74
4941 108.800  .  .     82     75
4942 108.820  .  .     99     76
4943 108.840  .  .     84     78
4944 108.860  .  .    105     81
4945 108.880  .  .     76     84
4946 108.900  .  .     96     89
4947 108.920  .  .    102     96
4948 108.940  .  .    117    106
4949 108.960  .  .    122    119
4950 108.980  .  .    142    138
4951 109.000  .  .    184    163
4952 109.020  .  .    189    196
4953 109.040  .  .    204    235
4954 109.060  .  .    275    282
4955 109.080  .  .    304    333
4956 109.100  .  .    345    385
4957 109.120  .  .    369    434
4958 109.140  .  .    463    472
4959 109.160  .  .    476    494
4960 109.180  .  .    485    495
4961 109.200  .  .    451    475
4962 109.220  .  .    423    438
4963 109.240  .  .    354    391
4964 109.260  .  .    301    340
4965 109.280  .  .    283    291
4966 109.300  .  .    207    247
4967 109.320  .  .    207    211
4968 109.340  .  .    198    183
4969 109.360  .  .    163    165
4970 109.380  .  .    159    155
4971 109.400  .  .    162    154
4972 109.420  .  .    141    161
4973 109.440  .  .    176    174
4974 109.460  .  .    167    193
4975 109.480  .  .    190    216
4976 109.500  .  .    222    241
4977 109.520  .  .    249    265
4978 109.540  .  .    299    285
4979 109.560  .  .    285    298
4980 109.580  .  .    256    301
4981 109.600  .  .    265    294
4982 109.620  .  .    277    278
4983 109.640  .  .    239    256
4984 109.660  .  .    245    231
4985 109.680  .  .    191    205
4986 109.700  .  .    181    180
4987 109.720  .  .    157    157
4988 109.740  .  .    144    137
4989 109.760  .  .    144    121
4990 109.780  .  .    107    108
4991 109.800  .  .    116     99
4992 109.820  .  .    109     91
4993 109.840  .  .     92     86
4994 109.860  .  .     79     82
4995 109.880  .  .     81     80
4996 109.900  .  .    100     78
4997 109.920  .  .     60     78
4998 109.940  .  .     94     78
4999 109.960  .  .     82     78
5000 109.980  .  .     74     78
5001 110.000  .  .     86     79
5002 110.020  .  .     80     80
5003 110.040  .  .     91     81
5004 110.060  .  .     94     81
5005 110.080  .  .     96     80
5006 110.100  .  .     91     80
5007 110.120  .  .     86     78
5008 110.140  .  .     89     77
5009 110.160  .  .     73     75
5010 110.180  .  .     67     73
5011 110.200  .  .     68     72
5012 110.220  .  .     65     70
5013 110.240  .  .     64     69
5014 110.260  .  .     83     68
5015 110.280  .  .     66     68
5016 110.300  .  .     69     67
5017 110.320  .  .     62     67
5018 110.340  .  .     68     66
5019 110.360  .  .     67     66
5020 110.380  .  .     71     66
5021 110.400  .  .     61     66
5022 110.420  .  .     66     66
5023 110.440  .  .     69     66
5024 110.460  .  .     71     65
5025 110.480  .  .     71     65
5026 110.500  .  .     72     65
5027 110.520  .  .     72     65
5028 110.540  .  .     73     65
5029 110.560  .  .     57     65
5030 110.580  .  .     57     65
5031 110.600  .  .     56     65
5032 110.620  .  .     61     65
5033 110.640  .  .     67     65
5034 110.660  .  .     63     65
5035 110.680  .  .     47     65
5036 110.700  .  .     59     65
5037 110.720  .  .     51     65
5038 110.740  .  .     57     65
5039 110.760  .  .     70     65
5040 110.780  .  .     61     65
5041 110.800  .  .     45     65
5042 110.820  .  .     84     65
5043 110.840  .  .     62     65
5044 110.860  .  .     70     65
5045 110.880  .  .     59     65
5046 110.900  .  .     57     65
5047 110.920  .  .     59     65
5048 110.940  .  .     60     65
5049 110.960  .  .     58     65
5050 110.980  .  .     69     65
5051 111.000  .  .     73     65
5052 111.020  .  .     58     65
5053 111.040  .  .     69     65
5054 111.060  .  .     65     65
5055 111.080  .  .     58     65
5056 111.100  .  .     53     65
5057 111.120  .  .     66     65
5058 111.140  .  .     62     65
5059 111.160  .  .     72     65
5060 111.180  .  .     60     65
5061 111.200  .  .     64     65
5062 111.220  .  .     69     65
5063 111.240  .  .     62     65
5064 111.260  .  .     69     65
5065 111.280  .  .     61     65
5066 111.300  .  .     56     65
5067 111.320  .  .     61     65
5068 111.340  .  .     56     65
5069 111.360  .  .     77     65
5070 111.380  .  .     62     65
5071 111.400  .  .     62     65
5072 111.420  .  .     67     65
5073 111.440  .  .     57     65
5074 111.460  .  .     75     66
5075 111.480  .  .     51     66
5076 111.500  .  .     61     66
5077 111.520  .  .     59     66
5078 111.540  .  .     68     66
5079 111.560  .  .     67     66
5080 111.580  .  .     62     66
5081 111.600  .  .     81     66
5082 111.620  .  .     55     66
5083 111.640  .  .     61     66
5084 111.660  .  .     76     66
5085 111.680  .  .     69     66
5086 111.700  .  .     66     66
5087 111.720  .  .     75     67
5088 111.740  .  .     59     67
5089 111.760  .  .     74     67
5090 111.780  .  .     80     67
5091 111.800  .  .     63     67
5092 111.820  .  .     62     67
5093 111.840  .  .     80     67
5094 111.860  .  .     62     68
5095 111.880  .  .     69     68
5096 111.900  .  .     65     68
5097 111.920  .  .     72     68
5098 111.940  .  .     77     69
5099 111.960  .  .     74     69
5100 111.980  .  .     81     69
5101 112.000  .  .     73     70
5102 112.020  .  .     68     70
5103 112.040  .  .     69     71
5104 112.060  .  .     56     71
5105 112.080  .  .     73     72
5106 112.100  .  .     80     72
5107 112.120  .  .     75     73
5108 112.140  .  .     78     75
5109 112.160  .  .     82     76
5110 112.180  .  .     81     79
5111 112.200  .  .     74     82
5112 112.220  .  .     89     87
5113 112.240  .  .     89     93
5114 112.260  .  .     94    101
5115 112.280  .  .     99    113
5116 112.300  .  .    131    127
5117 112.320  .  .    126    144
5118 112.340  .  .    143    164
5119 112.360  .  .    157    186
5120 112.380  .  .    185    209
5121 112.400  .  .    220    230
5122 112.420  .  .    241    249
5123 112.440  .  .    260    262
5124 112.460  .  .    232    267
5125 112.480  .  .    248    263
5126 112.500  .  .    232    251
5127 112.520  .  .    219    233
5128 112.540  .  .    172    212
5129 112.560  .  .    186    189
5130 112.580  .  .    149    168
5131 112.600  .  .    139    150
5132 112.620  .  .    125    134
5133 112.640  .  .    118    122
5134 112.660  .  .    113    114
5135 112.680  .  .    121    109
5136 112.700  .  .    104    108
5137 112.720  .  .    120    110
5138 112.740  .  .    123    115
5139 112.760  .  .    125    122
5140 112.780  .  .    135    131
5141 112.800  .  .    130    141
5142 112.820  .  .    133    151
5143 112.840  .  .    158    161
5144 112.860  .  .    133    168
5145 112.880  .  .    183    171
5146 112.900  .  .    171    171
5147 112.920  .  .    153    166
5148 112.940  .  .    133    158
5149 112.960  .  .    144    148
5150 112.980  .  .    134    138
5151 113.000  .  .    133    128
5152 113.020  .  .    134    120
5153 113.040  .  .    117    113
5154 113.060  .  .    109    109
5155 113.080  .  .    120    107
5156 113.100  .  .    105    106
5157 113.120  .  .    107    108
5158 113.140  .  .    104    110
5159 113.160  .  .    116    113
5160 113.180  .  .    148    116
5161 113.200  .  .    148    119
5162 113.220  .  .    139    119
5163 113.240  .  .     91    118
5164 113.260  .  .    108    115
5165 113.280  .  .    104    110
5166 113.300  .  .     83    105
5167 113.320  .  .     95    100
5168 113.340  .  .     93     94
5169 113.360  .  .     85     90
5170 113.380  .  .     79     86
5171 113.400  .  .     75     83
5172 113.420  .  .     62     80
5173 113.440  .  .     83     79
5174 113.460  .  .     76     78
5175 113.480  .  .     77     78
5176 113.500  .  .     95     79
5177 113.520  .  .     81     81
5178 113.540  .  .     80     83
5179 113.560  .  .     80     85
5180 113.580  .  .     90     87
5181 113.600  .  .     83     89
5182 113.620  .  .     94     91
5183 113.640  .  .     92     92
5184 113.660  .  .     94     92
5185 113.680  .  .     74     92
5186 113.700  .  .     97     90
5187 113.720  .  .     72     88
5188 113.740  .  .     85     85
5189 113.760  .  .     69     82
5190 113.780  .  .     74     80
5191 113.800  .  .     83     77
5192 113.820  .  .     70     75
5193 113.840  .  .     69     74
5194 113.860  .  .     70     72
5195 113.880  .  .     79     71
5196 113.900  .  .     69     71
5197 113.920  .  .     77     70
5198 113.940  .  .     59     70
5199 113.960  .  .     56     69
5200 113.980  .  .     73     69
5201 114.000  .  .     58     69
5202 114.020  .  .     66     69
5203 114.040  .  .     63     69
5204 114.060  .  .     75     69
5205 114.080  .  .     58     69
5206 114.100  .  .     59     68
5207 114.120  .  .     69     68
5208 114.140  .  .     67     68
5209 114.160  .  .     64     68
5210 114.180  .  .     65     68
5211 114.200  .  .     58     68
5212 114.220  .  .     69     68
5213 114.240  .  .     63     68
5214 114.260  .  .     54     68
5215 114.280  .  .     52     68
5216 114.300  .  .     66     68
5217 114.320  .  .     70     68
5218 114.340  .  .     69     68
5219 114.360  .  .     67     68
5220 114.380  .  .     68     68
5221 114.400  .  .     58     68
5222 114.420  .  .     54     68
5223 114.440  .  .     63     68
5224 114.460  .  .     52     68
5225 114.480  .  .     60     68
5226 114.500  .  .     55     68
5227 114.520  .  .     52     68
5228 114.540  .  .     66     68
5229 114.560  .  .     47     68
5230 114.580  .  .     40     68
5231 114.600  .  .     51     68
5232 114.620  .  .     56     68
5233 114.640  .  .     58     68
5234 114.660  .  .     63     68
5235 114.680  .  .     70     68
5236 114.700  .  .     60     68
5237 114.720  .  .     61     68
5238 114.740  .  .     66     68
5239 114.760  .  .     56     68
5240 114.780  .  .     69     68
5241 114.800  .  .     66     68
5242 114.820  .  .     62     68
5243 114.840  .  .     62     68
5244 114.860  .  .     59     68
5245 114.880  .  .     68     68
5246 114.900  .  .     56     68
5247 114.920  .  .     76     68
5248 114.940  .  .     70     69
5249 114.960  .  .     65     69
5250 114.980  .  .     66     69
5251 115.000  .  .     62     69
5252 115.020  .  .     62     69
5253 115.040  .  .     59     69
5254 115.060  .  .     85     69
5255 115.080  .  .     66     69
5256 115.100  .  .     52     69
5257 115.120  .  .     59     69
5258 115.140  .  .     69     69
5259 115.160  .  .     61     69
5260 115.180  .  .     51     69
5261 115.200  .  .     62     69
5262 115.220  .  .     61     69
5263 115.240  .  .     64     69
5264 115.260  .  .     51     69
5265 115.280  .  .     82     69
5266 115.300  .  .     62     69
5267 115.320  .  .     67     69
5268 115.340  .  .     64     69
5269 115.360  .  .     78     69
5270 115.380  .  .     70     69
5271 115.400  .  .     65     69
5272 115.420  .  .     69     69
5273 115.440  .  .     78     69
5274 115.460  .  .     62     69
5275 115.480  .  .     66     69
5276 115.500  .  .     45     69
5277 115.520  .  .     48     69
5278 115.540  .  .     56     69
5279 115.560  .  .     50     69
5280 115.580  .  .     55     69
5281 115.600  .  .     64     69
5282 115.620  .  .     47     69
5283 115.640  .  .     54     69
5284 115.660  .  .     62     69
5285 115.680  .  .     69     69
5286 115.700  .  .     67     69
5287 115.720  .  .     42     69
5288 115.740  .  .     70     69
5289 115.760  .  .     74     69
5290 115.780  .  .     62     69
5291 115.800  .  .     51     69
5292 115.820  .  .     72     69
5293 115.840  .  .     62     69
5294 115.860  .  .     66     70
5295 115.880  .  .     62     70
5296 115.900  .  .     57     70
5297 115.920  .  .     62     70
5298 115.940  .  .     49     70
5299 115.960  .  .     72     70
5300 115.980  .  .     53     70
5301 116.000  .  .     58     70
5302 116.020  .  .     68     70
5303 116.040  .  .     67     70
5304 116.060  .  .     64     70
5305 116.080  .  .     53     70
5306 116.100  .  .     68     70
5307 116.120  .  .     66     70
5308 116.140  .  .     59     70
5309 116.160  .  .     64     70
5310 116.180  .  .     60     70
5311 116.200  .  .     54     70
5312 116.220  .  .     62     70
5313 116.240  .  .     74     70
5314 116.260  .  .     77     70
5315 116.280  .  .     63     70
5316 116.300  .  .     63     70
5317 116.320  .  .     82     70
5318 116.340  .  .     55     70
5319 116.360  .  .     54     70
5320 116.380  .  .     67     70
5321 116.400  .  .     58     70
5322 116.420  .  .     66     70
5323 116.440  .  .     60     70
5324 116.460  .  .     71     70
5325 116.480  .  .     64     70
5326 116.500  .  .     56     70
5327 116.520  .  .     70     70
5328 116.540  .  .     68     70
5329 116.560  .  .     66     71
5330 116.580  .  .     58     71
5331 116.600  .  .     70     71
5332 116.620  .  .     61     71
5333 116.640  .  .     65     71
5334 116.660  .  .     71     71
5335 116.680  .  .     71     71
5336 116.700  .  .     67     71
5337 116.720  .  .     53     71
5338 116.740  .  .     70     71
5339 116.760  .  .     58     71
5340 116.780  .  .     49     71
5341 116.800  .  .     67     71
5342 116.820  .  .     66     71
5343 116.840  .  .     65     71
5344 116.860  .  .     82     71
5345 116.880  .  .     89     71
5346 116.900  .  .     66     71
5347 116.920  .  .     69     71
5348 116.940  .  .     61     72
5349 116.960  .  .     51     72
5350 116.980  .  .     60     72
5351 117.000  .  .     63     72
5352 117.020  .  .     50     72
5353 117.040  .  .     51     72
5354 117.060  .  .     59     72
5355 117.080  .  .     51     72
5356 117.100  .  .     58     72
5357 117.120  .  .     57     72
5358 117.140  .  .     75     72
5359 117.160  .  .     57     72
5360 117.180  .  .     72     72
5361 117.200  .  .     72     72
5362 117.220  .  .     65     72
5363 117.240  .  .     75     72
5364 117.260  .  .     62     72
5365 117.280  .  .     70     72
5366 117.300  .  .     46     72
5367 117.320  .  .     63     72
5368 117.340  .  .     70     72
5369 117.360  .  .     59     72
5370 117.380  .  .     61     73
5371 117.400  .  .     70     73
5372 117.420  .  .     58     73
5373 117.440  .  .     68     73
5374 117.460  .  .     69     73
5375 117.480  .  .     61     73
5376 117.500  .  .     61     73
5377 117.520  .  .     60     73
5378 117.540  .  .     77     73
5379 117.560  .  .     73     73
5380 117.580  .  .     58     73
5381 117.600  .  .     55     73
5382 117.620  .  .     80     73
5383 117.640  .  .     63     73
5384 117.660  .  .     69     73
5385 117.680  .  .     74     73
5386 117.700  .  .     66     73
5387 117.720  .  .     70     73
5388 117.740  .  .     73     73
5389 117.760  .  .     53     73
5390 117.780  .  .     78     73
5391 117.800  .  .     88     73
5392 117.820  .  .     52     73
5393 117.840  .  .     75     74
5394 117.860  .  .     78     74
5395 117.880  .  .     59     74
5396 117.900  .  .     72     74
5397 117.920  .  .     73     74
5398 117.940  .  .     66     74
5399 117.960  .  .     70     74
5400 117.980  .  .     58     74
5401 118.000  .  .     79     74
5402 118.020  .  .     66     74
5403 118.040  .  .     68     74
5404 118.060  .  .     64     74
5405 118.080  .  .     75     74
5406 118.100  .  .     69     74
5407 118.120  .  .     76     74
5408 118.140  .  .     62     74
5409 118.160  .  .     78     74
5410 118.180  .  .     67     74
5411 118.200  .  .     73     74
5412 118.220  .  .     73     75
5413 118.240  .  .     62     75
5414 118.260  .  .     71     75
5415 118.280  .  .     68     75
5416 118.300  .  .     63     75
5417 118.320  .  .     75     75
5418 118.340  .  .     87     75
5419 118.360  .  .     79     75
5420 118.380  .  .     74     75
5421 118.400  .  .     60     75
5422 118.420  .  .     87     75
5423 118.440  .  .     57     75
5424 118.460  .  .     59     75
5425 118.480  .  .     74     75
5426 118.500  .  .     61     75
5427 118.520  .  .     69     76
5428 118.540  .  .     95     76
5429 118.560  .  .     66     76
5430 118.580  .  .     57     76
5431 118.600  .  .     68     76
5432 118.620  .  .     81     76
5433 118.640  .  .     75     76
5434 118.660  .  .     81     76
5435 118.680  .  .     72     76
5436 118.700  .  .     79     76
5437 118.720  .  .     73     76
5438 118.740  .  .     80     76
5439 118.760  .  .     79     77
5440 118.780  .  .     72     77
5441 118.800  .  .     84     77
5442 118.820  .  .     98     77
5443 118.840  .  .     78     77
5444 118.860  .  .     59     77
5445 118.880  .  .     76     77
5446 118.900  .  .     73     77
5447 118.920  .  .     73     77
5448 118.940  .  .     91     78
5449 118.960  .  .     84     78
5450 118.980  .  .     79     78
5451 119.000  .  .     67     78
5452 119.020  .  .     80     78
5453 119.040  .  .     73     78
5454 119.060  .  .     73     78
5455 119.080  .  .     65     79
5456 119.100  .  .     72     79
5457 119.120  .  .     86     79
5458 119.140  .  .     61     79
5459 119.160  .  .     62     79
5460 119.180  .  .     86     79
5461 119.200  .  .     92     80
5462 119.220  .  .     89     80
5463 119.240  .  .     77     80
5464 119.260  .  .     66     80
5465 119.280  .  .    108     81
5466 119.300  .  .     88     81
5467 119.320  .  .     86     81
5468 119.340  .  .     97     82
5469 119.360  .  .     90     82
5470 119.380  .  .     72     82
5471 119.400  .  .     97     83
5472 119.420  .  .     83     84
5473 119.440  .  .     91     84
5474 119.460  .  .     87     85
5475 119.480  .  .     92     86
5476 119.500  .  .     82     87
5477 119.520  .  .     85     88
5478 119.540  .  .    103     89
5479 119.560  .  .    104     91
5480 119.580  .  .     87     92
5481 119.600  .  .     95     93
5482 119.620  .  .     86     93
5483 119.640  .  .     96     94
5484 119.660  .  .    105     95
5485 119.680  .  .     98     95
5486 119.700  .  .    106     95
5487 119.720  .  .     98     95
5488 119.740  .  .    100     95
5489 119.760  .  .     86     95
5490 119.780  .  .    103     96
5491 119.800  .  .    102     96
5492 119.820  .  .     92     97
5493 119.840  .  .    125     99
5494 119.860  .  .    119    100
5495 119.880  .  .    124    103
5496 119.900  .  .    120    106
5497 119.920  .  .    117    110
5498 119.940  .  .    139    115
5499 119.960  .  .    143    123
5500 119.980  .  .    142    132
5501 120.000  .  .    151    145
5502 120.020  .  .    166    160
5503 120.040  .  .    193    180
5504 120.060  .  .    202    203
5505 120.080  .  .    213    230
5506 120.100  .  .    242    261
5507 120.120  .  .    318    295
5508 120.140  .  .    320    330
5509 120.160  .  .    411    365
5510 120.180  .  .    459    398
5511 120.200  .  .    523    425
5512 120.220  .  .    519    444
5513 120.240  .  .    508    453
5514 120.260  .  .    501    451
5515 120.280  .  .    474    437
5516 120.300  .  .    436    415
5517 120.320  .  .    352    386
5518 120.340  .  .    416    355
5519 120.360  .  .    312    324
5520 120.380  .  .    302    295
5521 120.400  .  .    274    269
5522 120.420  .  .    247    249
5523 120.440  .  .    300    235
5524 120.460  .  .    278    228
5525 120.480  .  .    232    227
5526 120.500  .  .    271    235
5527 120.520  .  .    288    250
5528 120.540  .  .    287    273
5529 120.560  .  .    278    302
5530 120.580  .  .    379    338
5531 120.600  .  .    411    379
5532 120.620  .  .    441    424
5533 120.640  .  .    487    469
5534 120.660  .  .    587    513
5535 120.680  .  .    645    552
5536 120.700  .  .    602    582
5537 120.720  .  .    736    601
5538 120.740  .  .    662    608
5539 120.760  .  .    638    604
5540 120.780  .  .    668    592
5541 120.800  .  .    540    577
5542 120.820  .  .    537    563
5543 120.840  .  .    527    554
5544 120.860  .  .    484    554
5545 120.880  .  .    516    565
5546 120.900  .  .    538    590
5547 120.920  .  .    543    626
5548 120.940  .  .    602    675
5549 120.960  .  .    675    731
5550 120.980  .  .    746    792
5551 121.000  .  .    860    852
5552 121.020  .  .    973    904
5553 121.040  .  .    998    943
5554 121.060  .  .   1048    961
5555 121.080  .  .   1016    959
5556 121.100  .  .    945    936
5557 121.120  .  .    824    896
5558 121.140  .  .    799    846
5559 121.160  .  .    669    789
5560 121.180  .  .    653    730
5561 121.200  .  .    616    672
5562 121.220  .  .    560    616
5563 121.240  .  .    522    565
5564 121.260  .  .    469    518
5565 121.280  .  .    429    478
5566 121.300  .  .    487    445
5567 121.320  .  .    378    418
5568 121.340  .  .    409    400
5569 121.360  .  .    390    388
5570 121.380  .  .    382    384
5571 121.400  .  .    356    388
5572 121.420  .  .    344    398
5573 121.440  .  .    395    413
5574 121.460  .  .    408    433
5575 121.480  .  .    408    456
5576 121.500  .  .    454    478
5577 121.520  .  .    489    497
5578 121.540  .  .    455    509
5579 121.560  .  .    552    513
5580 121.580  .  .    563    506
5581 121.600  .  .    519    488
5582 121.620  .  .    462    462
5583 121.640  .  .    424    429
5584 121.660  .  .    350    394
5585 121.680  .  .    348    357
5586 121.700  .  .    269    322
5587 121.720  .  .    257    289
5588 121.740  .  .    225    260
5589 121.760  .  .    211    235
5590 121.780  .  .    194    214
5591 121.800  .  .    210    196
5592 121.820  .  .    198    182
5593 121.840  .  .    189    170
5594 121.860  .  .    182    160
5595 121.880  .  .    175    151
5596 121.900  .  .    172    143
5597 121.920  .  .    164    136
5598 121.940  .  .    142    130
5599 121.960  .  .    120    124
5600 121.980  .  .    125    119
5601 122.000  .  .    110    115
5602 122.020  .  .    119    111
5603 122.040  .  .    115    107
5604 122.060  .  .    109    104
5605 122.080  .  .     97    102
5606 122.100  .  .     95    100
5607 122.120  .  .    114     98
5608 122.140  .  .    103     96
5609 122.160  .  .    105     95
5610 122.180  .  .    110     94
5611 122.200  .  .    104     93
5612 122.220  .  .     73     92
5613 122.240  .  .     97     92
5614 122.260  .  .     92     91
5615 122.280  .  .     83     90
5616 122.300  .  .     91     90
5617 122.320  .  .     92     89
5618 122.340  .  .    103     89
5619 122.360  .  .     91     89
5620 122.380  .  .     88     88
5621 122.400  .  .    103     88
5622 122.420  .  .     96     88
5623 122.440  .  .     81     87
5624 122.460  .  .     76     87
5625 122.480  .  .     98     87
5626 122.500  .  .     80     87
5627 122.520  .  .     72     86
5628 122.540  .  .     95     86
5629 122.560  .  .     96     86
5630 122.580  .  .     81     86
5631 122.600  .  .     89     86
5632 122.620  .  .     84     85
5633 122.640  .  .     94     85
5634 122.660  .  .     89     85
5635 122.680  .  .     75     85
5636 122.700  .  .     75     85
5637 122.720  .  .     68     85
5638 122.740  .  .     94     85
5639 122.760  .  .     83     85
5640 122.780  .  .     93     85
5641 122.800  .  .     93     85
5642 122.820  .  .     77     84
5643 122.840  .  .     89     84
5644 122.860  .  .     88     84
5645 122.880  .  .     94     84
5646 122.900  .  .     93     84
5647 122.920  .  .     99     84
5648 122.940  .  .     86     84
5649 122.960  .  .     87     84
5650 122.980  .  .     92     84
5651 123.000  .  .     78     84
5652 123.020  .  .     82     85
5653 123.040  .  .     90     85
5654 123.060  .  .     70     85
5655 123.080  .  .     71     85
5656 123.100  .  .     83     85
5657 123.120  .  .     78     85
5658 123.140  .  .     81     85
5659 123.160  .  .     84     85
5660 123.180  .  .     85     85
5661 123.200  .  .     79     86
5662 123.220  .  .     98     86
5663 123.240  .  .     80     86
5664 123.260  .  .     98     87
5665 123.280  .  .     65     87
5666 123.300  .  .    106     88
5667 123.320  .  .     97     88
5668 123.340  .  .     93     89
5669 123.360  .  .     85     90
5670 123.380  .  .    105     92
5671 123.400  .  .     84     93
5672 123.420  .  .     94     96
5673 123.440  .  .     93     99
5674 123.460  .  .     88    103
5675 123.480  .  .     93    108
5676 123.500  .  .    109    115
5677 123.520  .  .    136    123
5678 123.540  .  .    115    132
5679 123.560  .  .    131    143
5680 123.580  .  .    175    155
5681 123.600  .  .    158    168
5682 123.620  .  .    172    181
5683 123.640  .  .    250    195
5684 123.660  .  .    250    208
5685 123.680  .  .    241    219
5686 123.700  .  .    284    227
5687 123.720  .  .    265    232
5688 123.740  .  .    219    232
5689 123.760  .  .    236    228
5690 123.780  .  .    227    221
5691 123.800  .  .    209    211
5692 123.820  .  .    178    198
5693 123.840  .  .    179    185
5694 123.860  .  .    146    172
5695 123.880  .  .    140    159
5696 123.900  .  .    157    148
5697 123.920  .  .    126    138
5698 123.940  .  .    114    129
5699 123.960  .  .    126    123
5700 123.980  .  .     95    118
5701 124.000  .  .    115    114
5702 124.020  .  .    117    113
5703 124.040  .  .     94    113
5704 124.060  .  .    105    115
5705 124.080  .  .     89    117
5706 124.100  .  .    101    121
5707 124.120  .  .    138    126
5708 124.140  .  .    139    132
5709 124.160  .  .    160    138
5710 124.180  .  .    148    144
5711 124.200  .  .    154    150
5712 124.220  .  .    162    154
5713 124.240  .  .    174    158
5714 124.260  .  .    190    159
5715 124.280  .  .    168    158
5716 124.300  .  .    154    156
5717 124.320  .  .    148    152
5718 124.340  .  .    136    146
5719 124.360  .  .    133    140
5720 124.380  .  .    111    133
5721 124.400  .  .    113    126
5722 124.420  .  .    119    119
5723 124.440  .  .     81    113
5724 124.460  .  .    111    108
5725 124.480  .  .    104    103
5726 124.500  .  .     98     99
5727 124.520  .  .     82     96
5728 124.540  .  .     96     93
5729 124.560  .  .     91     91
5730 124.580  .  .    104     90
5731 124.600  .  .     89     88
5732 124.620  .  .     83     87
5733 124.640  .  .     78     87
5734 124.660  .  .     96     86
5735 124.680  .  .     91     86
5736 124.700  .  .     90     85
5737 124.720  .  .     92     85
5738 124.740  .  .     80     85
5739 124.760  .  .     74     85
5740 124.780  .  .     79     85
5741 124.800  .  .     67     84
5742 124.820  .  .     80     84
5743 124.840  .  .     78     84
5744 124.860  .  .     99     84
5745 124.880  .  .     68     84
5746 124.900  .  .     78     84
5747 124.920  .  .    103     84
5748 124.940  .  .     75     84
5749 124.960  .  .     90     84
5750 124.980  .  .     92     84
5751 125.000  .  .     86     85
5752 125.020  .  .     95     85
5753 125.040  .  .     78     85
5754 125.060  .  .     88     86
5755 125.080  .  .     85     86
5756 125.100  .  .     91     87
5757 125.120  .  .     91     88
5758 125.140  .  .     84     90
5759 125.160  .  .     79     91
5760 125.180  .  .     86     94
5761 125.200  .  .     91     96
5762 125.220  .  .     89    100
5763 125.240  .  .     85    103
5764 125.260  .  .    108    108
5765 125.280  .  .     94    112
5766 125.300  .  .    103    118
5767 125.320  .  .     97    123
5768 125.340  .  .    135    129
5769 125.360  .  .    131    134
5770 125.380  .  .    136    139
5771 125.400  .  .    157    142
5772 125.420  .  .    167    145
5773 125.440  .  .    152    145
5774 125.460  .  .    131    144
5775 125.480  .  .    127    142
5776 125.500  .  .    129    138
5777 125.520  .  .    128    133
5778 125.540  .  .    116    128
5779 125.560  .  .    107    122
5780 125.580  .  .    102    117
5781 125.600  .  .     96    112
5782 125.620  .  .     83    108
5783 125.640  .  .     87    104
5784 125.660  .  .    104    100
5785 125.680  .  .     89     98
5786 125.700  .  .     89     96
5787 125.720  .  .     78     95
5788 125.740  .  .     89     94
5789 125.760  .  .     97     95
5790 125.780  .  .     88     95
5791 125.800  .  .     86     96
5792 125.820  .  .    112     98
5793 125.840  .  .     89    100
5794 125.860  .  .    105    102
5795 125.880  .  .     83    105
5796 125.900  .  .    106    107
5797 125.920  .  .    108    109
5798 125.940  .  .    128    111
5799 125.960  .  .    135    113
5800 125.980  .  .    119    114
5801 126.000  .  .    118    114
5802 126.020  .  .    117    113
5803 126.040  .  .    153    111
5804 126.060  .  .    123    109
5805 126.080  .  .    110    107
5806 126.100  .  .    111    104
5807 126.120  .  .     99    101
5808 126.140  .  .     90     98
5809 126.160  .  .     98     96
5810 126.180  .  .     93     94
5811 126.200  .  .    106     91
5812 126.220  .  .    102     90
5813 126.240  .  .    113     88
5814 126.260  .  .     78     87
5815 126.280  .  .     91     86
5816 126.300  .  .     85     85
5817 126.320  .  .     71     84
5818 126.340  .  .     87     84
5819 126.360  .  .     86     83
5820 126.380  .  .     88     83
5821 126.400  .  .     85     83
5822 126.420  .  .     81     82
5823 126.440  .  .     78     82
5824 126.460  .  .     75     82
5825 126.480  .  .     93     82
5826 126.500  .  .     68     82
5827 126.520  .  .     66     82
5828 126.540  .  .     86     82
5829 126.560  .  .     78     82
5830 126.580  .  .     85     82
5831 126.600  .  .     85     82
5832 126.620  .  .     92     82
5833 126.640  .  .     84     82
5834 126.660  .  .     90     81
5835 126.680  .  .     96     81
5836 126.700  .  .     75     81
5837 126.720  .  .     98     81
5838 126.740  .  .     77     81
5839 126.760  .  .     87     81
5840 126.780  .  .     70     81
5841 126.800  .  .     90     81
5842 126.820  .  .     87     81
5843 126.840  .  .     79     81
5844 126.860  .  .     99     81
5845 126.880  .  .     75     81
5846 126.900  .  .     87     81
5847 126.920  .  .     81     81
5848 126.940  .  .     84     81
5849 126.960  .  .     81     81
5850 126.980  .  .     80     81
5851 127.000  .  .     75     81
5852 127.020  .  .     68     81
5853 127.040  .  .     76     81
5854 127.060  .  .     71     81
5855 127.080  .  .     79     81
5856 127.100  .  .     77     81
5857 127.120  .  .     67     81
5858 127.140  .  .     85     81
5859 127.160  .  .     84     81
5860 127.180  .  .     90     81
5861 127.200  .  .     71     81
5862 127.220  .  .     82     81
5863 127.240  .  .     67     81
5864 127.260  .  .     64     81
5865 127.280  .  .    100     81
5866 127.300  .  .     81     81
5867 127.320  .  .     62     81
5868 127.340  .  .     72     81
5869 127.360  .  .     84     81
5870 127.380  .  .     92     81
5871 127.400  .  .     98     81
5872 127.420  .  .     94     81
5873 127.440  .  .     78     81
5874 127.460  .  .     72     81
5875 127.480  .  .     75     81
5876 127.500  .  .     79     81
5877 127.520  .  .     84     81
5878 127.540  .  .     75     81
5879 127.560  .  .     76     81
5880 127.580  .  .     64     81
5881 127.600  .  .     77     81
5882 127.620  .  .     73     81
5883 127.640  .  .     88     81
5884 127.660  .  .     92     81
5885 127.680  .  .     70     81
5886 127.700  .  .     81     81
5887 127.720  .  .     94     81
5888 127.740  .  .     69     81
5889 127.760  .  .     75     81
5890 127.780  .  .     87     81
5891 127.800  .  .     74     81
5892 127.820  .  .     81     81
5893 127.840  .  .     99     81
5894 127.860  .  .     67     81
5895 127.880  .  .     79     81
5896 127.900  .  .     71     81
5897 127.920  .  .     88     81
5898 127.940  .  .     82     81
5899 127.960  .  .     86     81
5900 127.980  .  .     84     81
5901 128.000  .  .     87     81
5902 128.020  .  .     76     81
5903 128.040  .  .     79     81
5904 128.060  .  .     75     81
5905 128.080  .  .     76     81
5906 128.100  .  .     85     81
5907 128.120  .  .     69     81
5908 128.140  .  .     82     81
5909 128.160  .  .     77     81
5910 128.180  .  .     75     82
5911 128.200  .  .     85     82
5912 128.220  .  .     71     82
5913 128.240  .  .     93     82
5914 128.260  .  .     74     82
5915 128.280  .  .     71     82
5916 128.300  .  .     79     82
5917 128.320  .  .     78     82
5918 128.340  .  .     91     82
5919 128.360  .  .     72     82
5920 128.380  .  .     84     82
5921 128.400  .  .     85     82
5922 128.420  .  .     72     82
5923 128.440  .  .     83     82
5924 128.460  .  .     83     82
5925 128.480  .  .     74     82
5926 128.500  .  .     85     82
5927 128.520  .  .     88     82
5928 128.540  .  .     88     82
5929 128.560  .  .     69     82
5930 128.580  .  .     60     82
5931 128.600  .  .     86     82
5932 128.620  .  .     86     82
5933 128.640  .  .     91     82
5934 128.660  .  .     83     82
5935 128.680  .  .     79     82
5936 128.700  .  .     81     82
5937 128.720  .  .     75     82
5938 128.740  .  .     81     83
5939 128.760  .  .     78     83
5940 128.780  .  .     76     83
5941 128.800  .  .     73     83
5942 128.820  .  .     80     83
5943 128.840  .  .     80     83
5944 128.860  .  .     83     83
5945 128.880  .  .     82     83
5946 128.900  .  .     76     83
5947 128.920  .  .     91     83
5948 128.940  .  .     81     83
5949 128.960  .  .     89     83
5950 128.980  .  .     93     83
5951 129.000  .  .     88     84
5952 129.020  .  .     77     84
5953 129.040  .  .     93     84
5954 129.060  .  .     98     84
5955 129.080  .  .     78     84
5956 129.100  .  .     68     84
5957 129.120  .  .     98     84
5958 129.140  .  .     72     85
5959 129.160  .  .     88     85
5960 129.180  .  .     84     85
5961 129.200  .  .    110     85
5962 129.220  .  .     85     85
5963 129.240  .  .     76     86
5964 129.260  .  .     90     86
5965 129.280  .  .     87     86
5966 129.300  .  .     83     86
5967 129.320  .  .     83     87
5968 129.340  .  .     85     87
5969 129.360  .  .     97     88
5970 129.380  .  .     82     88
5971 129.400  .  .     84     89
5972 129.420  .  .     89     89
5973 129.440  .  .     99     90
5974 129.460  .  .     95     91
5975 129.480  .  .     93     92
5976 129.500  .  .     95     94
5977 129.520  .  .    109     96
5978 129.540  .  .    101     98
5979 129.560  .  .    101    101
5980 129.580  .  .     98    105
5981 129.600  .  .    111    110
5982 129.620  .  .    120    116
5983 129.640  .  .    123    123
5984 129.660  .  .    134    131
5985 129.680  .  .    134    141
5986 129.700  .  .    139    152
5987 129.720  .  .    141    165
5988 129.740  .  .    147    179
5989 129.760  .  .    171    193
5990 129.780  .  .    182    209
5991 129.800  .  .    227    224
5992 129.820  .  .    225    240
5993 129.840  .  .    248    253
5994 129.860  .  .    253    265
5995 129.880  .  .    294    274
5996 129.900  .  .    313    280
5997 129.920  .  .    333    281
5998 129.940  .  .    296    278
5999 129.960  .  .    280    271
6000 129.980  .  .    252    261
6001 130.000  .  .    216    249
6002 130.020  .  .    200    234
6003 130.040  .  .    183    219
6004 130.060  .  .    176    204
6005 130.080  .  .    166    190
6006 130.100  .  .    144    176
6007 130.120  .  .    146    164
6008 130.140  .  .    126    153
6009 130.160  .  .    122    144
6010 130.180  .  .    123    137
6011 130.200  .  .    124    131
6012 130.220  .  .    107    127
6013 130.240  .  .    109    125
6014 130.260  .  .    111    125
6015 130.280  .  .    137    126
6016 130.300  .  .    119    128
6017 130.320  .  .    127    132
6018 130.340  .  .    125    136
6019 130.360  .  .    137    142
6020 130.380  .  .    135    148
6021 130.400  .  .    119    155
6022 130.420  .  .    150    162
6023 130.440  .  .    176    169
6024 130.460  .  .    161    175
6025 130.480  .  .    184    179
6026 130.500  .  .    193    183
6027 130.520  .  .    199    184
6028 130.540  .  .    203    184
6029 130.560  .  .    174    181
6030 130.580  .  .    186    177
6031 130.600  .  .    153    172
6032 130.620  .  .    162    165
6033 130.640  .  .    159    157
6034 130.660  .  .    135    150
6035 130.680  .  .    121    142
6036 130.700  .  .    112    134
6037 130.720  .  .    112    127
6038 130.740  .  .    105    121
6039 130.760  .  .    116    115
6040 130.780  .  .    104    110
6041 130.800  .  .    105    105
6042 130.820  .  .    125    102
6043 130.840  .  .     98     98
6044 130.860  .  .     93     96
6045 130.880  .  .     97     94
6046 130.900  .  .    100     92
6047 130.920  .  .    105     91
6048 130.940  .  .     91     89
6049 130.960  .  .    110     89
6050 130.980  .  .     70     88
6051 131.000  .  .     96     87
6052 131.020  .  .     97     87
6053 131.040  .  .     89     86
6054 131.060  .  .     84     86
6055 131.080  .  .     87     86
6056 131.100  .  .     96     85
6057 131.120  .  .     84     85
6058 131.140  .  .     80     85
6059 131.160  .  .     87     85
6060 131.180  .  .     84     85
6061 131.200  .  .     90     85
6062 131.220  .  .     74     85
6063 131.240  .  .     90     85
6064 131.260  .  .     95     84
6065 131.280  .  .    112     84
6066 131.300  .  .    100     84
6067 131.320  .  .     85     84
6068 131.340  .  .    101     84
6069 131.360  .  .     86     84
6070 131.380  .  .     92     84
6071 131.400  .  .     93     84
6072 131.420  .  .     85     84
6073 131.440  .  .     85     84
6074 131.460  .  .    104     84
6075 131.480  .  .     91     84
6076 131.500  .  .     87     84
6077 131.520  .  .     87     84
6078 131.540  .  .     88     84
6079 131.560  .  .     84     84
6080 131.580  .  .     93     84
6081 131.600  .  .     96     84
6082 131.620  .  .    102     84
6083 131.640  .  .     88     84
6084 131.660  .  .     81     84
6085 131.680  .  .    106     84
6086 131.700  .  .     88     84
6087 131.720  .  .     85     84
6088 131.740  .  .     88     84
6089 131.760  .  .     93     84
6090 131.780  .  .     78     84
6091 131.800  .  .    103     84
6092 131.820  .  .     82     84
6093 131.840  .  .    105     84
6094 131.860  .  .     95     84
6095 131.880  .  .     92     84
6096 131.900  .  .     77     85
6097 131.920  .  .     94     85
6098 131.940  .  .     99     85
6099 131.960  .  .     75     85
6100 131.980  .  .     98     85
6101 132.000  .  .     80     85
6102 132.020  .  .     95     85
6103 132.040  .  .     94     85
6104 132.060  .  .     98     85
6105 132.080  .  .    111     86
6106 132.100  .  .     93     86
6107 132.120  .  .     95     86
6108 132.140  .  .     77     86
6109 132.160  .  .     95     86
6110 132.180  .  .     90     86
6111 132.200  .  .    107     87
6112 132.220  .  .     92     87
6113 132.240  .  .     86     87
6114 132.260  .  .    109     87
6115 132.280  .  .     94     88
6116 132.300  .  .    131     88
6117 132.320  .  .    109     88
6118 132.340  .  .    107     89
6119 132.360  .  .    112     89
6120 132.380  .  .    102     90
6121 132.400  .  .    116     90
6122 132.420  .  .     88     91
6123 132.440  .  .    114     91
6124 132.460  .  .    101     92
6125 132.480  .  .     88     92
6126 132.500  .  .     99     93
6127 132.520  .  .    100     94
6128 132.540  .  .     99     95
6129 132.560  .  .    102     95
6130 132.580  .  .    118     96
6131 132.600  .  .    113     97
6132 132.620  .  .    130     97
6133 132.640  .  .    102     98
6134 132.660  .  .    132     99
6135 132.680  .  .    138    100
6136 132.700  .  .     95    101
6137 132.720  .  .    132    102
6138 132.740  .  .    121    103
6139 132.760  .  .    142    104
6140 132.780  .  .    138    106
6141 132.800  .  .    128    108
6142 132.820  .  .    124    110
6143 132.840  .  .    124    113
6144 132.860  .  .    149    117
6145 132.880  .  .    154    121
6146 132.900  .  .    155    127
6147 132.920  .  .    167    134
6148 132.940  .  .    166    142
6149 132.960  .  .    177    152
6150 132.980  .  .    179    165
6151 133.000  .  .    200    180
6152 133.020  .  .    203    198
6153 133.040  .  .    240    219
6154 133.060  .  .    254    243
6155 133.080  .  .    253    271
6156 133.100  .  .    273    302
6157 133.120  .  .    310    336
6158 133.140  .  .    332    373
6159 133.160  .  .    420    412
6160 133.180  .  .    467    453
6161 133.200  .  .    497    493
6162 133.220  .  .    581    533
6163 133.240  .  .    590    569
6164 133.260  .  .    670    602
6165 133.280  .  .    750    628
6166 133.300  .  .    737    646
6167 133.320  .  .    781    655
6168 133.340  .  .    719    654
6169 133.360  .  .    666    643
6170 133.380  .  .    578    624
6171 133.400  .  .    585    598
6172 133.420  .  .    579    567
6173 133.440  .  .    499    533
6174 133.460  .  .    428    498
6175 133.480  .  .    442    463
6176 133.500  .  .    413    430
6177 133.520  .  .    373    401
6178 133.540  .  .    337    376
6179 133.560  .  .    338    355
6180 133.580  .  .    337    341
6181 133.600  .  .    317    332
6182 133.620  .  .    353    329
6183 133.640  .  .    336    333
6184 133.660  .  .    337    343
6185 133.680  .  .    364    360
6186 133.700  .  .    354    381
6187 133.720  .  .    450    408
6188 133.740  .  .    447    439
6189 133.760  .  .    509    473
6190 133.780  .  .    532    509
6191 133.800  .  .    584    546
6192 133.820  .  .    629    582
6193 133.840  .  .    663    616
6194 133.860  .  .    695    645
6195 133.880  .  .    763    669
6196 133.900  .  .    755    686
6197 133.920  .  .    774    695
6198 133.940  .  .    771    696
6199 133.960  .  .    745    688
6200 133.980  .  .    715    673
6201 134.000  .  .    660    650
6202 134.020  .  .    634    621
6203 134.040  .  .    563    587
6204 134.060  .  .    542    550
6205 134.080  .  .    490    511
6206 134.100  .  .    463    472
6207 134.120  .  .    389    433
6208 134.140  .  .    382    397
6209 134.160  .  .    328    363
6210 134.180  .  .    304    333
6211 134.200  .  .    292    306
6212 134.220  .  .    294    284
6213 134.240  .  .    300    266
6214 134.260  .  .    293    253
6215 134.280  .  .    258    244
6216 134.300  .  .    267    239
6217 134.320  .  .    270    238
6218 134.340  .  .    252    241
6219 134.360  .  .    307    247
6220 134.380  .  .    288    256
6221 134.400  .  .    297    268
6222 134.420  .  .    290    281
6223 134.440  .  .    344    296
6224 134.460  .  .    334    311
6225 134.480  .  .    340    327
6226 134.500  .  .    392    341
6227 134.520  .  .    412    353
6228 134.540  .  .    438    363
6229 134.560  .  .    441    369
6230 134.580  .  .    411    372
6231 134.600  .  .    414    370
6232 134.620  .  .    417    364
6233 134.640  .  .    398    354
6234 134.660  .  .    419    341
6235 134.680  .  .    354    325
6236 134.700  .  .    301    308
6237 134.720  .  .    292    289
6238 134.740  .  .    279    269
6239 134.760  .  .    251    250
6240 134.780  .  .    239    232
6241 134.800  .  .    239    214
6242 134.820  .  .    215    197
6243 134.840  .  .    214    182
6244 134.860  .  .    175    169
6245 134.880  .  .    200    157
6246 134.900  .  .    177    147
6247 134.920  .  .    126    139
6248 134.940  .  .    147    132
6249 134.960  .  .    160    126
6250 134.980  .  .    161    122
6251 135.000  .  .    148    119




_exptl_crystal_density_diffrn
2.615
_refine_ls_goodness_of_fit_all
2.26
_chemical_formula_iupac
'K Ca F (C O3)'
_chemical_formula_structural
'Ca F K (CO3)'
_cell_formula_units_Z
1
_chemical_formula_moiety
'C Ca F K O3'
_cell_length_a
5.10093(7)
_cell_length_b
5.10093(7)
_cell_length_c
4.45510(7)
_symmetry_space_group_name_Hall
'P -6 2'
_computing_molecular_graphics
'Balls & Sticks (Kang & Ozawa, 2003)'
_chemical_formula_weight
158.17
_computing_structure_refinement
'FULLPROF (Rodriguez-Carvajal, 2003)'
_refine_ls_weighting_scheme
'1/Y~i~'
_symmetry_space_group_name_H-M
'P -6 m 2'
_cell_angle_gamma
120.0
_cell_measurement_temperature
295
_computing_data_reduction
'Highscore1.0b (Philips Electronics, 2002)'
_computing_cell_refinement
'Highscore1.0b (Philips Electronics, 2002)'
_refine_ls_shift/su_max
.01
_diffrn_radiation_monochromator
'curved graphite'
_chemical_name_systematic
;
potassium calcium flurine-carbonate
;
_computing_structure_solution
'SHEXLS97 (Sheldrick, 1997)'
_cell_volume
100.389(5)
_refine_ls_structure_factor_coef
Inet
_exptl_crystal_F_000
78
_symmetry_cell_setting
Hexagonal
_diffrn_ambient_temperature
295
_chemical_melting_point
774.0
_computing_data_collection
'Rint2400 (Rigaku Corporation, 1993)'
_refine_ls_extinction_method
none
_exptl_crystal_density_method
'not measured'
_diffrn_measurement_device_type
'Rint2400'
_cell_angle_alpha
90.0
_refine_ls_number_parameters
26
_chemical_formula_sum
'C Ca F K O3'
_refine_ls_matrix_type
fullcycle
_cell_angle_beta
90.0
loop_
_symmetry_equiv_pos_site_id
_symmetry_equiv_pos_as_xyz
1 x,y,z
2 -y,x-y,z
3 -x+y,-x,z
4 x,y,-z
5 -y,x-y,-z
6 -x+y,-x,-z
7 -y,-x,z
8 -x+y,y,z
9 x,x-y,z
10 -y,-x,-z
11 -x+y,y,-z
12 x,x-y,-z

loop_
_diffrn_radiation_type
_diffrn_radiation_wavelength
CuK\a~1~ 1.54056
CuK\a~2~ 1.54439

loop_
_atom_type_symbol
_atom_type_description
_atom_type_scat_dispersion_real
_atom_type_scat_dispersion_imag
_atom_type_scat_source
Ca Ca 0.341 1.286 
;International Tables for Crystallography (Vol. IV)
;
K K 0.365 1.066 
;International Tables for Crystallography (Vol. IV)
;
F F 0.069 0.053 
;International Tables for Crystallography (Vol. IV)
;
O O .047 .032 
;International Tables for Crystallography (Vol. IV)
;
C C .017 .009 
;International Tables for Crystallography (Vol. IV)
;

loop_
_atom_site_label
_atom_site_fract_x
_atom_site_fract_y
_atom_site_fract_z
_atom_site_u_iso_or_equiv
_atom_site_thermal_displace_type
_atom_site_occupancy
_atom_site_type_symbol
K 0 0 0 .0126(6) Uiso 1 K
C .66667 .33333 .5 .018(2) Uiso 1 C
Ca .33333 .66667 .5 .0100(6) Uiso 1 Ca
O .8120(3) .1880(3) .5 .0129 Uiso 1 O
F .33333 .66667 0 .01960(10) Uiso 1 F

loop_
_geom_bond_atom_site_label_1
_geom_bond_atom_site_label_2
_geom_bond_site_symmetry_2
_geom_bond_distance
_geom_bond_publ_flag
K O 1_454 2.7790(10) yes
K O 1_455 2.7790(10) yes
K O 2_544 2.7790(10) yes
K O 2_545 2.7790(10) yes
K O 3_664 2.7790(10) yes
K O 3_665 2.7790(10) yes
K F 1_445 2.94500(10) yes
K F 1_545 2.94500(10) yes
K F . 2.94500(10) yes
C O . 1.2840(10) yes
C O 2_655 1.2840(10) yes
C O 3_665 1.2840(10) yes
Ca O 1_455 2.5570(10) yes
Ca O 1_565 2.5570(10) yes
Ca O 2_555 2.5570(10) yes
Ca O 2_655 2.5570(10) yes
Ca O 3_665 2.5570(10) yes
Ca O 3_675 2.5570(10) yes
Ca F . 2.22750(10) yes
Ca F 1_556 2.22750(10) yes

loop_
_geom_angle_atom_site_label_1
_geom_angle_atom_site_label_2
_geom_angle_atom_site_label_3
_geom_angle_site_symmetry_1
_geom_angle_site_symmetry_3
_geom_angle
_geom_angle_publ_flag
O C O . 2_655 120 yes
O C O . 3_665 120 yes
O C O 2_655 3_665 120 yes



# powder data simulated using PLATON:

data_I_simulated_

_publcif_pd_cifplot 'simulated 2021-03-25'

